<?xml version="1.0" encoding="UTF-8"?>

<!-- generated on 2024-06-13 20:23:09 by Eclipse SUMO netedit Version 1.18.0
-->

<routes xmlns:xsi="http://www.w3.org/2001/XMLSchema-instance" xsi:noNamespaceSchemaLocation="http://sumo.dlr.de/xsd/routes_file.xsd">
    <!-- VTypes -->
    <vType id="t_0" color="white"/>
    <!-- Vehicles, persons and containers (sorted by depart) -->
    <flow id="Car_1" begin="0.00" color="white" from="-23518777#3" to="23518777#3" via="-23518777#2 -23518777#1 -23518777#0 -23520886#0 724187422#0 724187422#1 936923544#1 936923544#2 936923544#3 596568243 596568239#1 596568239#2 23519164 23519248 23518904 23519483#0 23519483#1 23519483#3 23519483#4 836685805#1 836685805#2 836685805#3 836685805#4 836685800#0 836685800#1 836685800#2 272595409#1 272595409#2 272595409#3 272595409#4 272595409#5 272595409#6 272595409#7 721779874 793411605 763589722 721779676 763589723 252223484#0 252223486 252223483#0 252223483#1 252223483#2 252223483#3 252223483#4 252223483#5 252223483#6 252223483#7 252223483#8 252223483#9 -23519706#8 -23519706#7 -23519706#6 -23519706#5 -23519706#4 -23519706#3 -23519706#2 -23519706#1 -23519706#0 23519339 -282035194 -724187422#0 23520886#0 23518777#0 23518777#1 23518777#2" end="3600.00" vehsPerHour="1.00"/>
</routes>
