<?xml version="1.0" encoding="UTF-8"?>

<!-- generated on 2024-04-13 03:36:27 by Eclipse SUMO netconvert Version 1.19.0
<configuration xmlns:xsi="http://www.w3.org/2001/XMLSchema-instance" xsi:noNamespaceSchemaLocation="http://sumo.dlr.de/xsd/netconvertConfiguration.xsd">

    <input>
        <type-files value="${SUMO_HOME}/data/typemap/osmNetconvert.typ.xml,${SUMO_HOME}/data/typemap/osmNetconvertUrbanDe.typ.xml,${SUMO_HOME}/data/typemap/osmNetconvertPedestrians.typ.xml,${SUMO_HOME}/data/typemap/osmNetconvertBicycle.typ.xml"/>
        <osm-files value="osm_bbox.osm.xml.gz"/>
    </input>

    <output>
        <output-file value="osm.net.xml.gz"/>
        <output.street-names value="true"/>
        <output.original-names value="true"/>
    </output>

    <projection>
        <proj.utm value="true"/>
    </projection>

    <processing>
        <geometry.remove value="true"/>
        <roundabouts.guess value="true"/>
    </processing>

    <tls_building>
        <tls.discard-simple value="true"/>
        <tls.join value="true"/>
        <tls.guess-signals value="true"/>
        <tls.default-type value="actuated"/>
    </tls_building>

    <ramp_guessing>
        <ramps.guess value="true"/>
    </ramp_guessing>

    <junctions>
        <junctions.join value="true"/>
        <junctions.corner-detail value="5"/>
    </junctions>

    <pedestrian>
        <crossings.guess value="true"/>
    </pedestrian>

    <formats>
        <osm.bike-access value="true"/>
        <osm.sidewalks value="true"/>
    </formats>

</configuration>
-->

<net version="1.16" junctionCornerDetail="5" walkingareas="true" limitTurnSpeed="5.50" xmlns:xsi="http://www.w3.org/2001/XMLSchema-instance" xsi:noNamespaceSchemaLocation="http://sumo.dlr.de/xsd/net_file.xsd">

    <location netOffset="-519553.58,-1505237.24" convBoundary="0.00,0.00,3583.13,2691.75" origBoundary="123.180348,13.615733,123.219914,13.640078" projParameter="+proj=utm +zone=51 +ellps=WGS84 +datum=WGS84 +units=m +no_defs"/>

    <type id="cycleway.lane|highway.residential" priority="3" numLanes="1" speed="13.89" disallow="pedestrian tram rail_urban rail rail_electric rail_fast ship" oneway="0" sidewalkWidth="2.00" bikeLaneWidth="1.25"/>
    <type id="cycleway.lane|highway.secondary" priority="11" numLanes="1" speed="13.89" disallow="pedestrian tram rail_urban rail rail_electric rail_fast ship" oneway="0" sidewalkWidth="3.00" bikeLaneWidth="1.25"/>
    <type id="cycleway.lane|highway.tertiary" priority="10" numLanes="1" speed="13.89" disallow="pedestrian tram rail_urban rail rail_electric rail_fast ship" oneway="0" sidewalkWidth="3.00" bikeLaneWidth="1.25"/>
    <type id="highway.footway" priority="1" numLanes="1" speed="2.78" allow="pedestrian" oneway="1" width="2.00"/>
    <type id="highway.primary" priority="12" numLanes="2" speed="13.89" disallow="pedestrian tram rail_urban rail rail_electric rail_fast ship" oneway="0" sidewalkWidth="3.00"/>
    <type id="highway.residential" priority="3" numLanes="1" speed="13.89" disallow="pedestrian tram rail_urban rail rail_electric rail_fast ship" oneway="0" sidewalkWidth="2.00"/>
    <type id="highway.secondary" priority="11" numLanes="1" speed="13.89" disallow="pedestrian tram rail_urban rail rail_electric rail_fast ship" oneway="0" sidewalkWidth="3.00"/>
    <type id="highway.steps" priority="1" numLanes="1" speed="1.39" allow="pedestrian" oneway="1" width="2.00"/>
    <type id="highway.tertiary" priority="10" numLanes="1" speed="13.89" disallow="pedestrian tram rail_urban rail rail_electric rail_fast ship" oneway="0" sidewalkWidth="3.00"/>
    <type id="railway.rail" priority="20" numLanes="1" speed="44.44" allow="rail" oneway="1"/>

    <edge id=":11152432734_0" function="internal">
        <lane id=":11152432734_0_0" index="0" disallow="pedestrian tram rail_urban rail rail_electric rail_fast ship" speed="5.91" length="6.99" shape="628.34,1282.98 626.71,1283.68 625.17,1283.65 623.71,1282.89 622.34,1281.39"/>
    </edge>
    <edge id=":11152432734_1" function="internal">
        <lane id=":11152432734_1_0" index="0" disallow="pedestrian tram rail_urban rail rail_electric rail_fast ship" speed="3.64" length="2.02" shape="624.95,1279.54 625.39,1280.05 625.81,1280.34 626.22,1280.42 626.62,1280.28"/>
    </edge>
    <edge id=":11409097919_0" function="internal">
        <lane id=":11409097919_0_0" index="0" disallow="pedestrian tram rail_urban rail rail_electric rail_fast ship" speed="3.65" length="4.67" shape="685.14,790.91 684.74,792.30 684.10,792.92 683.22,792.78 682.09,791.88"/>
    </edge>
    <edge id=":11409097919_w0" function="walkingarea">
        <lane id=":11409097919_w0_0" index="0" allow="pedestrian" speed="2.78" length="0.10" width="2.00" shape="682.62,794.86 684.52,794.26 686.43,793.65"/>
    </edge>
    <edge id=":1875494540_0" function="internal">
        <lane id=":1875494540_0_0" index="0" disallow="pedestrian tram rail_urban rail rail_electric rail_fast ship" speed="3.65" length="4.67" shape="1409.50,1438.35 1409.15,1439.75 1408.53,1440.39 1407.64,1440.29 1406.48,1439.43"/>
    </edge>
    <edge id=":1875494548_0" function="internal">
        <lane id=":1875494548_0_0" index="0" disallow="pedestrian tram rail_urban rail rail_electric rail_fast ship" speed="3.65" length="4.67" shape="2564.65,1652.64 2565.77,1653.54 2566.10,1654.37 2565.64,1655.13 2564.37,1655.82"/>
    </edge>
    <edge id=":1875494613_w0" function="walkingarea">
        <lane id=":1875494613_w0_0" index="0" allow="pedestrian" speed="2.78" length="4.43" width="2.00" shape="2488.89,1703.95 2490.85,1703.55 2490.70,1702.02 2490.77,1701.40 2490.94,1700.87 2491.21,1700.45 2491.57,1700.12 2490.47,1698.46 2488.75,1699.66 2488.18,1700.12 2487.63,1700.62 2486.99,1701.24 2486.13,1702.08 2487.51,1703.52 2488.15,1703.11 2488.40,1703.11 2488.61,1703.25 2488.77,1703.53"/>
    </edge>
    <edge id=":1875494693_w0" function="walkingarea">
        <lane id=":1875494693_w0_0" index="0" allow="pedestrian" speed="2.78" length="4.03" width="2.00" shape="2496.27,1740.43 2498.23,1740.04 2498.23,1739.19 2498.37,1738.86 2498.62,1738.60 2498.96,1738.41 2499.40,1738.28 2499.02,1736.32 2498.16,1736.31 2497.83,1736.16 2497.57,1735.92 2497.37,1735.57 2497.24,1735.13 2495.28,1735.52 2495.28,1736.37 2495.13,1736.70 2494.89,1736.96 2494.54,1737.15 2494.10,1737.28 2494.49,1739.25 2495.34,1739.25 2495.67,1739.40 2495.94,1739.64 2496.14,1739.99"/>
    </edge>
    <edge id=":1875494716_w0" function="walkingarea">
        <lane id=":1875494716_w0_0" index="0" allow="pedestrian" speed="2.78" length="4.03" width="2.00" shape="2450.36,1749.48 2452.33,1749.09 2452.32,1748.24 2452.47,1747.91 2452.72,1747.65 2453.06,1747.46 2453.50,1747.33 2453.11,1745.37 2448.21,1746.33 2448.60,1748.30 2449.45,1748.30 2449.77,1748.45 2450.04,1748.70 2450.23,1749.04"/>
    </edge>
    <edge id=":1875494722_w0" function="walkingarea">
        <lane id=":1875494722_w0_0" index="0" allow="pedestrian" speed="2.78" length="5.23" width="2.00" shape="2445.23,1748.96 2444.84,1746.99 2444.14,1747.04 2444.00,1746.94 2444.01,1746.78 2444.15,1746.54 2444.43,1746.22 2443.01,1744.81 2441.54,1746.49 2441.00,1747.09 2440.40,1747.57 2439.58,1747.95 2438.40,1748.26 2438.79,1750.22"/>
    </edge>
    <edge id=":1875494726_w0" function="walkingarea">
        <lane id=":1875494726_w0_0" index="0" allow="pedestrian" speed="2.78" length="4.07" width="2.00" shape="2437.92,1750.40 2437.53,1748.44 2432.48,1749.43 2432.86,1751.40 2433.65,1751.40 2433.90,1751.55 2434.05,1751.79 2434.10,1752.14 2434.06,1752.58 2436.02,1752.95 2436.42,1751.66 2436.71,1751.18 2437.05,1750.81 2437.46,1750.55"/>
    </edge>
    <edge id=":1875494732_w0" function="walkingarea">
        <lane id=":1875494732_w0_0" index="0" allow="pedestrian" speed="2.78" length="4.09" width="2.00" shape="2433.24,1751.32 2432.85,1749.36 2431.87,1749.30 2431.38,1749.09 2430.90,1748.74 2430.42,1748.28 2429.93,1747.68 2428.32,1748.87 2428.65,1749.57 2428.62,1749.85 2428.46,1750.07 2428.16,1750.24 2427.74,1750.37 2428.12,1752.33"/>
    </edge>
    <edge id=":1875494836_w0" function="walkingarea">
        <lane id=":1875494836_w0_0" index="0" allow="pedestrian" speed="2.78" length="4.05" width="2.00" shape="2514.02,1828.20 2515.98,1827.81 2515.98,1826.96 2516.13,1826.64 2516.37,1826.38 2516.72,1826.19 2517.16,1826.06 2516.79,1824.10 2515.92,1824.08 2515.59,1823.93 2515.32,1823.68 2515.12,1823.33 2514.99,1822.88 2513.03,1823.27 2513.03,1824.12 2512.88,1824.44 2512.63,1824.70 2512.29,1824.89 2511.85,1825.02 2512.21,1826.98 2513.08,1826.99 2513.42,1827.15 2513.69,1827.40 2513.89,1827.75"/>
    </edge>
    <edge id=":1875494838_w0" function="walkingarea">
        <lane id=":1875494838_w0_0" index="0" allow="pedestrian" speed="2.78" length="4.05" width="2.00" shape="2412.10,1829.96 2412.51,1828.01 2411.71,1827.66 2411.46,1827.38 2411.30,1827.04 2411.25,1826.62 2411.29,1826.15 2409.32,1825.79 2409.01,1826.58 2408.75,1826.82 2408.43,1826.96 2408.04,1827.01 2407.59,1826.95 2407.17,1828.91 2407.97,1829.25 2408.22,1829.52 2408.37,1829.85 2408.42,1830.25 2408.36,1830.71 2410.32,1831.12 2410.66,1830.34 2410.92,1830.09 2411.25,1829.95 2411.64,1829.91"/>
    </edge>
    <edge id=":1875494841_w0" function="walkingarea">
        <lane id=":1875494841_w0_0" index="0" allow="pedestrian" speed="2.78" length="4.03" width="2.00" shape="2484.52,1833.71 2486.48,1833.30 2486.47,1832.45 2486.62,1832.13 2486.86,1831.87 2487.20,1831.68 2487.65,1831.55 2487.28,1829.59 2482.36,1830.50 2482.73,1832.47 2483.58,1832.48 2483.91,1832.64 2484.18,1832.90 2484.38,1833.25"/>
    </edge>
    <edge id=":1875494843_w0" function="walkingarea">
        <lane id=":1875494843_w0_0" index="0" allow="pedestrian" speed="2.78" length="4.03" width="2.00" shape="2440.64,1836.06 2441.06,1834.10 2436.17,1833.06 2435.75,1835.01 2436.53,1835.36 2436.78,1835.63 2436.92,1835.96 2436.97,1836.37 2436.92,1836.84 2438.89,1837.22 2439.21,1836.44 2439.47,1836.19 2439.79,1836.05 2440.18,1836.00"/>
    </edge>
    <edge id=":1916920133_0" function="internal">
        <lane id=":1916920133_0_0" index="0" disallow="pedestrian tram rail_urban rail rail_electric rail_fast ship" speed="6.46" length="9.03" shape="379.97,1018.87 378.88,1016.64 377.34,1015.31 375.35,1014.88 372.91,1015.35"/>
    </edge>
    <edge id=":1916920133_1" function="internal">
        <lane id=":1916920133_1_0" index="0" disallow="pedestrian tram rail_urban rail rail_electric rail_fast ship" speed="13.89" length="14.27" shape="379.97,1018.87 378.88,1015.40 377.91,1012.04 377.02,1008.65 376.18,1005.12"/>
    </edge>
    <edge id=":1916920133_2" function="internal">
        <lane id=":1916920133_2_0" index="0" disallow="pedestrian tram rail_urban rail rail_electric rail_fast ship" speed="3.65" length="1.44" shape="379.97,1018.87 380.36,1017.48"/>
    </edge>
    <edge id=":1916920133_9" function="internal">
        <lane id=":1916920133_9_0" index="0" disallow="pedestrian tram rail_urban rail rail_electric rail_fast ship" speed="3.65" length="3.23" shape="380.36,1017.48 381.00,1016.85 381.88,1016.99 383.01,1017.88"/>
    </edge>
    <edge id=":1916920133_3" function="internal">
        <lane id=":1916920133_3_0" index="0" disallow="pedestrian tram rail_urban rail rail_electric rail_fast ship" speed="13.89" length="13.98" shape="379.30,1004.41 380.13,1007.90 380.99,1011.19 381.94,1014.46 383.01,1017.88"/>
    </edge>
    <edge id=":1916920133_4" function="internal">
        <lane id=":1916920133_4_0" index="0" disallow="pedestrian tram rail_urban rail rail_electric rail_fast ship" speed="8.32" length="3.86" shape="379.30,1004.41 379.59,1008.13 379.55,1008.25"/>
    </edge>
    <edge id=":1916920133_5" function="internal">
        <lane id=":1916920133_5_0" index="0" disallow="pedestrian tram rail_urban rail rail_electric rail_fast ship" speed="3.65" length="1.44" shape="379.30,1004.41 378.78,1005.76"/>
    </edge>
    <edge id=":1916920133_10" function="internal">
        <lane id=":1916920133_10_0" index="0" disallow="pedestrian tram rail_urban rail rail_electric rail_fast ship" speed="8.32" length="10.26" shape="379.55,1008.25 378.62,1011.19 376.39,1013.60 372.91,1015.35"/>
    </edge>
    <edge id=":1916920133_11" function="internal">
        <lane id=":1916920133_11_0" index="0" disallow="pedestrian tram rail_urban rail rail_electric rail_fast ship" speed="3.65" length="3.23" shape="378.78,1005.76 378.09,1006.32 377.22,1006.11 376.18,1005.12"/>
    </edge>
    <edge id=":1916920133_6" function="internal">
        <lane id=":1916920133_6_0" index="0" disallow="pedestrian tram rail_urban rail rail_electric rail_fast ship" speed="6.88" length="9.36" shape="371.86,1012.33 374.20,1011.16 375.70,1009.57 376.36,1007.55 376.18,1005.12"/>
    </edge>
    <edge id=":1916920133_7" function="internal">
        <lane id=":1916920133_7_0" index="0" disallow="pedestrian tram rail_urban rail rail_electric rail_fast ship" speed="7.96" length="14.28" shape="371.86,1012.33 375.72,1011.58 378.86,1012.26 381.29,1014.36 383.01,1017.88"/>
    </edge>
    <edge id=":1916920133_8" function="internal">
        <lane id=":1916920133_8_0" index="0" disallow="pedestrian tram rail_urban rail rail_electric rail_fast ship" speed="3.65" length="4.67" shape="371.86,1012.33 373.26,1012.69 373.90,1013.31 373.78,1014.20 372.91,1015.35"/>
    </edge>
    <edge id=":1918589851_0" function="internal">
        <lane id=":1918589851_0_0" index="0" disallow="pedestrian tram rail_urban rail rail_electric rail_fast ship" speed="13.89" length="0.22" shape="1451.18,1641.94 1451.18,1641.88 1451.17,1641.83 1451.16,1641.79 1451.14,1641.73"/>
    </edge>
    <edge id=":1918589851_1" function="internal">
        <lane id=":1918589851_1_0" index="0" disallow="pedestrian tram rail_urban rail rail_electric rail_fast ship" speed="13.89" length="0.65" shape="1454.24,1640.93 1454.29,1641.12 1454.32,1641.25 1454.34,1641.38 1454.36,1641.57"/>
    </edge>
    <edge id=":193253039_0" function="internal">
        <lane id=":193253039_0_0" index="0" disallow="pedestrian tram rail_urban rail rail_electric rail_fast ship" speed="5.56" length="14.48" shape="1965.15,1231.98 1955.87,1243.09"/>
    </edge>
    <edge id=":193253039_1" function="internal">
        <lane id=":193253039_1_0" index="0" disallow="pedestrian tram rail_urban rail rail_electric rail_fast ship" speed="7.92" length="4.16" shape="1965.15,1231.98 1962.22,1234.65 1962.04,1234.72"/>
    </edge>
    <edge id=":193253039_2" function="internal">
        <lane id=":193253039_2_0" index="0" disallow="pedestrian tram rail_urban rail rail_electric rail_fast ship" speed="3.65" length="1.44" shape="1965.15,1231.98 1963.77,1232.40"/>
    </edge>
    <edge id=":193253039_9" function="internal">
        <lane id=":193253039_9_0" index="0" disallow="pedestrian tram rail_urban rail rail_electric rail_fast ship" speed="7.92" length="10.21" shape="1962.04,1234.72 1959.17,1235.70 1956.01,1235.11 1952.72,1232.90"/>
    </edge>
    <edge id=":193253039_10" function="internal">
        <lane id=":193253039_10_0" index="0" disallow="pedestrian tram rail_urban rail rail_electric rail_fast ship" speed="3.65" length="3.23" shape="1963.77,1232.40 1962.90,1232.20 1962.54,1231.38 1962.68,1229.95"/>
    </edge>
    <edge id=":193253039_3" function="internal">
        <lane id=":193253039_3_0" index="0" disallow="pedestrian tram rail_urban rail rail_electric rail_fast ship" speed="6.41" length="9.04" shape="1954.86,1230.52 1956.93,1231.92 1958.92,1232.28 1960.84,1231.63 1962.68,1229.95"/>
    </edge>
    <edge id=":193253039_4" function="internal">
        <lane id=":193253039_4_0" index="0" disallow="pedestrian tram rail_urban rail rail_electric rail_fast ship" speed="8.11" length="14.28" shape="1954.86,1230.52 1957.40,1233.55 1958.42,1236.65 1957.91,1239.83 1955.87,1243.09"/>
    </edge>
    <edge id=":193253039_5" function="internal">
        <lane id=":193253039_5_0" index="0" disallow="pedestrian tram rail_urban rail rail_electric rail_fast ship" speed="3.65" length="4.67" shape="1954.86,1230.52 1955.22,1231.92 1954.98,1232.78 1954.14,1233.11 1952.72,1232.90"/>
    </edge>
    <edge id=":193253039_6" function="internal">
        <lane id=":193253039_6_0" index="0" disallow="pedestrian tram rail_urban rail rail_electric rail_fast ship" speed="6.64" length="9.23" shape="1953.43,1241.02 1954.73,1238.92 1955.05,1236.87 1954.38,1234.86 1952.72,1232.90"/>
    </edge>
    <edge id=":193253039_7" function="internal">
        <lane id=":193253039_7_0" index="0" disallow="pedestrian tram rail_urban rail rail_electric rail_fast ship" speed="5.56" length="14.43" shape="1953.43,1241.02 1962.68,1229.95"/>
    </edge>
    <edge id=":193253039_8" function="internal">
        <lane id=":193253039_8_0" index="0" disallow="pedestrian tram rail_urban rail rail_electric rail_fast ship" speed="3.65" length="1.44" shape="1953.43,1241.02 1954.81,1240.62"/>
    </edge>
    <edge id=":193253039_11" function="internal">
        <lane id=":193253039_11_0" index="0" disallow="pedestrian tram rail_urban rail rail_electric rail_fast ship" speed="3.65" length="3.23" shape="1954.81,1240.62 1955.68,1240.83 1956.03,1241.66 1955.87,1243.09"/>
    </edge>
    <edge id=":1993231109_0" function="internal">
        <lane id=":1993231109_0_0" index="0" disallow="pedestrian tram rail_urban rail rail_electric rail_fast ship" speed="13.89" length="13.25" shape="2154.93,1419.90 2151.60,1418.89 2148.53,1418.15 2145.42,1417.72 2141.95,1417.65"/>
    </edge>
    <edge id=":1993231109_1" function="internal">
        <lane id=":1993231109_1_0" index="0" disallow="pedestrian tram rail_urban rail rail_electric rail_fast ship" speed="7.59" length="4.21" shape="2154.93,1419.90 2151.15,1418.08"/>
    </edge>
    <edge id=":1993231109_2" function="internal">
        <lane id=":1993231109_2_0" index="0" disallow="pedestrian tram rail_urban rail rail_electric rail_fast ship" speed="3.65" length="1.44" shape="2154.93,1419.90 2154.03,1418.78"/>
    </edge>
    <edge id=":1993231109_9" function="internal">
        <lane id=":1993231109_9_0" index="0" disallow="pedestrian tram rail_urban rail rail_electric rail_fast ship" speed="7.59" length="11.19" shape="2151.15,1418.08 2150.96,1417.99 2148.95,1415.38 2148.91,1412.10 2150.82,1408.12"/>
    </edge>
    <edge id=":1993231109_10" function="internal">
        <lane id=":1993231109_10_0" index="0" disallow="pedestrian tram rail_urban rail rail_electric rail_fast ship" speed="3.65" length="3.23" shape="2154.03,1418.78 2153.90,1417.89 2154.52,1417.25 2155.90,1416.86"/>
    </edge>
    <edge id=":1993231109_3" function="internal">
        <lane id=":1993231109_3_0" index="0" disallow="pedestrian tram rail_urban rail rail_electric rail_fast ship" speed="5.98" length="9.08" shape="2153.47,1409.90 2152.35,1412.25 2152.38,1414.19 2153.56,1415.72 2155.90,1416.86"/>
    </edge>
    <edge id=":1993231109_4" function="internal">
        <lane id=":1993231109_4_0" index="0" disallow="pedestrian tram rail_urban rail rail_electric rail_fast ship" speed="10.93" length="14.41" shape="2153.47,1409.90 2150.86,1413.22 2148.07,1415.61 2145.10,1417.09 2141.95,1417.65"/>
    </edge>
    <edge id=":1993231109_5" function="internal">
        <lane id=":1993231109_5_0" index="0" disallow="pedestrian tram rail_urban rail rail_electric rail_fast ship" speed="3.65" length="4.67" shape="2153.47,1409.90 2152.14,1410.46 2151.25,1410.34 2150.81,1409.57 2150.82,1408.12"/>
    </edge>
    <edge id=":1993231109_6" function="internal">
        <lane id=":1993231109_6_0" index="0" disallow="pedestrian tram rail_urban rail rail_electric rail_fast ship" speed="9.76" length="11.37" shape="2141.86,1414.45 2144.22,1414.00 2146.51,1412.79 2148.70,1410.84 2150.82,1408.12"/>
    </edge>
    <edge id=":1993231109_7" function="internal">
        <lane id=":1993231109_7_0" index="0" disallow="pedestrian tram rail_urban rail rail_electric rail_fast ship" speed="13.89" length="14.32" shape="2141.86,1414.45 2145.49,1414.55 2148.97,1415.03 2152.40,1415.82 2155.90,1416.86"/>
    </edge>
    <edge id=":1993231109_8" function="internal">
        <lane id=":1993231109_8_0" index="0" disallow="pedestrian tram rail_urban rail rail_electric rail_fast ship" speed="3.65" length="1.44" shape="2141.86,1414.45 2143.08,1415.21"/>
    </edge>
    <edge id=":1993231109_11" function="internal">
        <lane id=":1993231109_11_0" index="0" disallow="pedestrian tram rail_urban rail rail_electric rail_fast ship" speed="3.65" length="3.23" shape="2143.08,1415.21 2143.50,1416.00 2143.13,1416.81 2141.95,1417.65"/>
    </edge>
    <edge id=":1993231114_0" function="internal">
        <lane id=":1993231114_0_0" index="0" disallow="pedestrian tram rail_urban rail rail_electric rail_fast ship" speed="6.51" length="8.88" shape="1950.33,1669.53 1948.22,1668.34 1946.22,1668.09 1944.33,1668.79 1942.56,1670.44"/>
    </edge>
    <edge id=":1993231114_1" function="internal">
        <lane id=":1993231114_1_0" index="0" disallow="pedestrian tram rail_urban rail rail_electric rail_fast ship" speed="13.89" length="14.01" shape="1950.33,1669.53 1947.51,1667.30 1944.91,1665.10 1942.39,1662.80 1939.81,1660.30"/>
    </edge>
    <edge id=":1993231114_2" function="internal">
        <lane id=":1993231114_2_0" index="0" disallow="pedestrian tram rail_urban rail rail_electric rail_fast ship" speed="3.65" length="1.44" shape="1950.33,1669.53 1949.87,1668.17"/>
    </edge>
    <edge id=":1993231114_9" function="internal">
        <lane id=":1993231114_9_0" index="0" disallow="pedestrian tram rail_urban rail rail_electric rail_fast ship" speed="3.65" length="3.23" shape="1949.87,1668.17 1950.04,1667.29 1950.85,1666.90 1952.29,1667.00"/>
    </edge>
    <edge id=":1993231114_3" function="internal">
        <lane id=":1993231114_3_0" index="0" disallow="pedestrian tram rail_urban rail rail_electric rail_fast ship" speed="13.89" length="13.60" shape="1942.07,1658.04 1944.60,1660.50 1947.02,1662.70 1949.52,1664.81 1952.29,1667.00"/>
    </edge>
    <edge id=":1993231114_4" function="internal">
        <lane id=":1993231114_4_0" index="0" disallow="pedestrian tram rail_urban rail rail_electric rail_fast ship" speed="8.23" length="3.82" shape="1942.07,1658.04 1944.29,1660.99 1944.32,1661.12"/>
    </edge>
    <edge id=":1993231114_5" function="internal">
        <lane id=":1993231114_5_0" index="0" disallow="pedestrian tram rail_urban rail rail_electric rail_fast ship" speed="3.65" length="1.44" shape="1942.07,1658.04 1942.36,1659.45"/>
    </edge>
    <edge id=":1993231114_10" function="internal">
        <lane id=":1993231114_10_0" index="0" disallow="pedestrian tram rail_urban rail rail_electric rail_fast ship" speed="8.23" length="10.03" shape="1944.32,1661.12 1945.10,1664.05 1944.53,1667.20 1942.56,1670.44"/>
    </edge>
    <edge id=":1993231114_11" function="internal">
        <lane id=":1993231114_11_0" index="0" disallow="pedestrian tram rail_urban rail rail_electric rail_fast ship" speed="3.65" length="3.23" shape="1942.36,1659.45 1942.07,1660.30 1941.22,1660.58 1939.81,1660.30"/>
    </edge>
    <edge id=":1993231114_6" function="internal">
        <lane id=":1993231114_6_0" index="0" disallow="pedestrian tram rail_urban rail rail_electric rail_fast ship" speed="6.77" length="9.07" shape="1940.07,1668.43 1941.37,1666.29 1941.77,1664.22 1941.24,1662.22 1939.81,1660.30"/>
    </edge>
    <edge id=":1993231114_7" function="internal">
        <lane id=":1993231114_7_0" index="0" disallow="pedestrian tram rail_urban rail rail_electric rail_fast ship" speed="8.01" length="13.95" shape="1940.07,1668.43 1942.86,1665.83 1945.83,1664.73 1948.97,1665.12 1952.29,1667.00"/>
    </edge>
    <edge id=":1993231114_8" function="internal">
        <lane id=":1993231114_8_0" index="0" disallow="pedestrian tram rail_urban rail rail_electric rail_fast ship" speed="3.65" length="4.67" shape="1940.07,1668.43 1941.45,1668.00 1942.32,1668.19 1942.69,1669.00 1942.56,1670.44"/>
    </edge>
    <edge id=":1993231120_0" function="internal">
        <lane id=":1993231120_0_0" index="0" disallow="pedestrian tram rail_urban rail rail_electric rail_fast ship" speed="3.65" length="4.67" shape="1829.85,1733.20 1828.46,1733.61 1827.59,1733.40 1827.24,1732.58 1827.40,1731.15"/>
    </edge>
    <edge id=":2035881099_0" function="internal">
        <lane id=":2035881099_0_0" index="0" disallow="pedestrian tram rail_urban rail rail_electric rail_fast ship" speed="13.89" length="14.40" shape="1426.39,617.15 1424.08,602.93"/>
    </edge>
    <edge id=":2035881099_1" function="internal">
        <lane id=":2035881099_1_0" index="0" disallow="pedestrian tram rail_urban rail rail_electric rail_fast ship" speed="7.97" length="4.08" shape="1426.39,617.15 1426.31,613.23 1426.38,613.08"/>
    </edge>
    <edge id=":2035881099_2" function="internal">
        <lane id=":2035881099_2_0" index="0" disallow="pedestrian tram rail_urban rail rail_electric rail_fast ship" speed="3.65" length="1.44" shape="1426.39,617.15 1426.99,615.84"/>
    </edge>
    <edge id=":2035881099_9" function="internal">
        <lane id=":2035881099_9_0" index="0" disallow="pedestrian tram rail_urban rail rail_electric rail_fast ship" speed="7.97" length="10.18" shape="1426.38,613.08 1427.52,610.25 1430.00,608.21 1433.76,607.11"/>
    </edge>
    <edge id=":2035881099_10" function="internal">
        <lane id=":2035881099_10_0" index="0" disallow="pedestrian tram rail_urban rail rail_electric rail_fast ship" speed="3.65" length="3.23" shape="1426.99,615.84 1427.71,615.31 1428.57,615.58 1429.55,616.64"/>
    </edge>
    <edge id=":2035881099_3" function="internal">
        <lane id=":2035881099_3_0" index="0" disallow="pedestrian tram rail_urban rail rail_electric rail_fast ship" speed="6.47" length="9.03" shape="1434.22,610.28 1431.83,610.98 1430.26,612.27 1429.50,614.15 1429.55,616.64"/>
    </edge>
    <edge id=":2035881099_4" function="internal">
        <lane id=":2035881099_4_0" index="0" disallow="pedestrian tram rail_urban rail rail_electric rail_fast ship" speed="8.06" length="14.22" shape="1434.22,610.28 1430.30,610.29 1427.31,609.07 1425.23,606.62 1424.08,602.93"/>
    </edge>
    <edge id=":2035881099_5" function="internal">
        <lane id=":2035881099_5_0" index="0" disallow="pedestrian tram rail_urban rail rail_electric rail_fast ship" speed="3.65" length="4.67" shape="1434.22,610.28 1432.91,609.66 1432.41,608.92 1432.69,608.07 1433.76,607.11"/>
    </edge>
    <edge id=":2035881099_6" function="internal">
        <lane id=":2035881099_6_0" index="0" disallow="pedestrian tram rail_urban rail rail_electric rail_fast ship" speed="6.58" length="9.13" shape="1427.23,602.42 1427.98,604.78 1429.31,606.34 1431.24,607.12 1433.76,607.11"/>
    </edge>
    <edge id=":2035881099_7" function="internal">
        <lane id=":2035881099_7_0" index="0" disallow="pedestrian tram rail_urban rail rail_electric rail_fast ship" speed="13.89" length="14.40" shape="1427.23,602.42 1429.55,616.64"/>
    </edge>
    <edge id=":2035881099_8" function="internal">
        <lane id=":2035881099_8_0" index="0" disallow="pedestrian tram rail_urban rail rail_electric rail_fast ship" speed="3.65" length="1.44" shape="1427.23,602.42 1426.64,603.73"/>
    </edge>
    <edge id=":2035881099_11" function="internal">
        <lane id=":2035881099_11_0" index="0" disallow="pedestrian tram rail_urban rail rail_electric rail_fast ship" speed="3.65" length="3.23" shape="1426.64,603.73 1425.91,604.26 1425.06,603.99 1424.08,602.93"/>
    </edge>
    <edge id=":2035881100_0" function="internal">
        <lane id=":2035881100_0_0" index="0" disallow="pedestrian tram rail_urban rail rail_electric rail_fast ship" speed="8.10" length="10.75" shape="1521.59,602.61 1520.10,600.69 1518.04,599.46 1515.40,598.92 1512.17,599.08"/>
    </edge>
    <edge id=":2035881100_1" function="internal">
        <lane id=":2035881100_1_0" index="0" disallow="pedestrian tram rail_urban rail rail_electric rail_fast ship" speed="13.89" length="14.58" shape="1521.59,602.61 1515.30,589.46"/>
    </edge>
    <edge id=":2035881100_2" function="internal">
        <lane id=":2035881100_2_0" index="0" disallow="pedestrian tram rail_urban rail rail_electric rail_fast ship" speed="3.65" length="1.44" shape="1521.59,602.61 1521.74,601.17"/>
    </edge>
    <edge id=":2035881100_9" function="internal">
        <lane id=":2035881100_9_0" index="0" disallow="pedestrian tram rail_urban rail rail_electric rail_fast ship" speed="3.65" length="3.23" shape="1521.74,601.17 1522.26,600.45 1523.15,600.43 1524.42,601.11"/>
    </edge>
    <edge id=":2035881100_3" function="internal">
        <lane id=":2035881100_3_0" index="0" disallow="pedestrian tram rail_urban rail rail_electric rail_fast ship" speed="13.89" length="14.35" shape="1518.23,588.16 1524.42,601.11"/>
    </edge>
    <edge id=":2035881100_4" function="internal">
        <lane id=":2035881100_4_0" index="0" disallow="pedestrian tram rail_urban rail rail_electric rail_fast ship" speed="7.60" length="4.15" shape="1518.23,588.16 1519.35,592.16"/>
    </edge>
    <edge id=":2035881100_5" function="internal">
        <lane id=":2035881100_5_0" index="0" disallow="pedestrian tram rail_urban rail rail_electric rail_fast ship" speed="3.65" length="1.44" shape="1518.23,588.16 1517.98,589.59"/>
    </edge>
    <edge id=":2035881100_10" function="internal">
        <lane id=":2035881100_10_0" index="0" disallow="pedestrian tram rail_urban rail rail_electric rail_fast ship" speed="7.60" length="11.20" shape="1519.35,592.16 1519.41,592.39 1518.80,595.62 1516.39,597.85 1512.17,599.08"/>
    </edge>
    <edge id=":2035881100_11" function="internal">
        <lane id=":2035881100_11_0" index="0" disallow="pedestrian tram rail_urban rail rail_electric rail_fast ship" speed="3.65" length="3.23" shape="1517.98,589.59 1517.41,590.27 1516.52,590.23 1515.30,589.46"/>
    </edge>
    <edge id=":2035881100_6" function="internal">