<?xml version="1.0" encoding="UTF-8"?>

<!-- generated on 2024-04-13 03:36:28 by Eclipse SUMO polyconvert Version 1.19.0
<configuration xmlns:xsi="http://www.w3.org/2001/XMLSchema-instance" xsi:noNamespaceSchemaLocation="http://sumo.dlr.de/xsd/polyconvertConfiguration.xsd">

    <input>
        <net-file value="osm.net.xml.gz"/>
        <osm-files value="osm_bbox.osm.xml.gz"/>
        <osm.keep-full-type value="true"/>
        <type-file value="${SUMO_HOME}/data/typemap/osmPolyconvert.typ.xml"/>
    </input>

    <output>
        <output-file value="osm.poly.xml.gz"/>
    </output>

    <report>
        <verbose value="true"/>
    </report>

</configuration>
-->

<additional xmlns:xsi="http://www.w3.org/2001/XMLSchema-instance" xsi:noNamespaceSchemaLocation="http://sumo.dlr.de/xsd/additional_file.xsd">
    <location netOffset="-519553.58,-1505237.24" convBoundary="-844.97,-0.00,4232.84,2691.75" origBoundary="123.172963,13.615733,123.219914,13.640078" projParameter="+proj=utm +zone=51 +ellps=WGS84 +datum=WGS84 +units=m +no_defs"/>

    <poly id="1053485825" type="building.yes" color="255,230,230" fill="1" layer="-1.00" shape="449.451436,932.376009 451.359999,925.974170 455.743538,922.195249 463.328748,918.418764 471.745489,916.401331 477.476592,918.529064 483.347206,922.105664 480.844193,927.898791 476.385004,931.589177 468.734998,935.232898 459.517308,937.957513 454.153672,936.217135 449.451436,932.376009"/>
    <poly id="1053486591" type="man_made.bridge" color="255,230,230" fill="1" layer="-1.00" shape="642.702059,814.621255 682.813839,809.177758 682.200760,804.676182 681.318723,798.283272 641.206918,803.737831 641.981360,809.400748 642.702059,814.621255"/>
    <poly id="1057811786" type="building.roof" color="255,230,230" fill="1" layer="-1.00" shape="2243.153422,1731.227220 2265.939873,1708.950688 2252.139211,1695.015656 2229.352769,1717.281140 2243.153422,1731.227220"/>
    <poly id="1057811786#1" type="leisure.sports_hall" color="207,245,201" fill="1" layer="-2.00" shape="2243.153422,1731.227220 2265.939873,1708.950688 2252.139211,1695.015656 2229.352769,1717.281140 2243.153422,1731.227220"/>
    <poly id="1057811786#2" type="sport.multi" color="79,230,125" fill="1" layer="-2.00" shape="2243.153422,1731.227220 2265.939873,1708.950688 2252.139211,1695.015656 2229.352769,1717.281140 2243.153422,1731.227220"/>
    <poly id="1057817282" type="building.yes" color="255,230,230" fill="1" layer="-1.00" shape="1409.967077,1850.763673 1417.220101,1842.928458 1422.516115,1847.776628 1415.263091,1855.611842 1409.967077,1850.763673"/>
    <poly id="1060923949" type="building.yes" color="255,230,230" fill="1" layer="-1.00" shape="1221.211602,1718.986840 1246.438039,1742.275412 1254.741029,1733.401416 1229.514599,1710.101776 1221.211602,1718.986840"/>
    <poly id="1060925381" type="man_made.dyke" color="255,230,230" fill="0" layer="-1.00" shape="1504.626485,1840.930239 1518.824029,1859.388421 1527.810631,1874.823261 1537.404750,1887.980389 1547.089549,1895.950811 1557.088319,1903.534416"/>
    <poly id="1082510413" type="landuse.commercial" color="209,209,204" fill="1" layer="-3.00" shape="1883.408545,1346.700405 1928.344888,1379.737828 1955.687021,1341.793816 1911.843499,1308.259574 1883.408545,1346.700405"/>
    <poly id="1082510414" type="building.yes" color="255,230,230" fill="1" layer="-1.00" shape="1960.693644,1330.185713 1953.515118,1339.137824 1914.180027,1308.007119 1917.763879,1303.531054 1921.347732,1299.054989 1960.693644,1330.185713"/>
    <poly id="1082510414#1" type="tourism.hotel" color="207,245,201" fill="1" layer="-2.00" shape="1960.693644,1330.185713 1953.515118,1339.137824 1914.180027,1308.007119 1917.763879,1303.531054 1921.347732,1299.054989 1960.693644,1330.185713"/>
    <poly id="1095074529" type="building.commercial" color="255,230,230" fill="1" layer="-1.00" shape="579.224584,1600.043119 574.062876,1589.035234 559.120558,1595.792051 564.044002,1607.208942 579.224584,1600.043119"/>
    <poly id="1095074530" type="building.commercial" color="255,230,230" fill="1" layer="-1.00" shape="551.373887,1612.927933 564.044002,1607.208942 559.120558,1595.792051 546.125962,1601.499737 551.373887,1612.927933"/>
    <poly id="1134445838" type="landuse.residential" color="235,235,227" fill="1" layer="-3.00" shape="2201.396915,705.559044 2199.465687,869.676466 2197.262109,996.900074 2294.523618,996.781600 2294.708532,669.881854 2292.284766,657.880575 2277.152577,657.635773 2201.396915,705.559044"/>
    <poly id="1134677220" type="landuse.residential" color="235,235,227" fill="1" layer="-3.00" shape="336.188429,1867.259289 360.561816,1860.940799 352.357257,1825.976358 328.892440,1832.229188 312.462273,1789.992629 281.748000,1742.403696 249.973372,1752.609533 243.191972,1766.572233 216.306839,1776.018706 248.311865,1933.769526 207.113356,1919.660129 183.362746,1975.391869 243.253452,2000.950543 300.823389,2020.170664 346.219025,2033.321235 377.704391,2019.067618 337.760742,1904.883981 336.188429,1867.259289"/>
    <poly id="1134690338" type="landuse.residential" color="235,235,227" fill="1" layer="-3.00" shape="1554.898814,1046.851168 1290.349083,1076.577567 1265.257017,992.065186 1245.066320,795.969103 1510.726310,760.978911 1554.898814,1046.851168"/>
    <poly id="1134691079" type="building.school" color="255,230,230" fill="1" layer="-1.00" shape="1074.882979,1053.382416 1075.623492,1060.803739 1089.296494,1059.443120 1088.545169,1052.021788 1074.882979,1053.382416"/>
    <poly id="1134691080" type="building.school" color="255,230,230" fill="1" layer="-1.00" shape="1053.154940,1064.479912 1073.924944,1061.277954 1072.805649,1054.121755 1052.035640,1057.323714 1053.154940,1064.479912"/>
    <poly id="1134691081" type="building.school" color="255,230,230" fill="1" layer="-1.00" shape="1071.643014,1088.448689 1103.694754,1084.923825 1102.566918,1074.881160 1070.515157,1078.417084 1071.643014,1088.448689"/>
    <poly id="1134691082" type="building.school" color="255,230,230" fill="1" layer="-1.00" shape="1064.230454,1023.691097 1076.185366,1020.161516 1067.263622,990.261428 1055.297881,993.791005 1064.230454,1023.691097"/>
    <poly id="1134692580" type="building.retail" color="255,230,230" fill="1" layer="-1.00" shape="2157.775191,1123.241336 2160.894034,1092.521355 2175.430350,1093.639281 2176.498459,1083.830621 2153.643217,1084.055056 2149.955552,1122.504974 2157.775191,1123.241336"/>
    <poly id="1134692581" type="landuse.retail" color="194,194,130" fill="1" layer="-3.00" shape="2181.074187,1083.358854 2153.405731,1083.479779 2148.082758,1124.394558 2178.181969,1127.770355 2181.074187,1083.358854"/>
    <poly id="1134692582" type="landuse.residential" color="235,235,227" fill="1" layer="-3.00" shape="2110.473943,664.918768 2136.534496,726.374270 2155.975274,735.315102 2161.948630,876.303133 2166.537727,938.293927 2048.128605,992.596810 1999.972339,651.092463 2090.636777,638.094868 2110.473943,664.918768"/>
    <poly id="1143314822" type="man_made.bridge" color="255,230,230" fill="1" layer="-1.00" shape="846.815076,1295.600728 849.223946,1299.683452 900.992612,1269.509845 898.778184,1265.759045 896.542139,1261.986109 844.773471,1292.148666 846.815076,1295.600728"/>
    <poly id="1150409889" type="amenity.restaurant" color="237,199,199" fill="1" layer="-1.00" shape="2132.974317,1266.227859 2138.376677,1260.149733 2153.625565,1275.844311 2148.981597,1280.407943 2132.974317,1266.227859"/>
    <poly id="1150409889#1" type="building.yes" color="255,230,230" fill="1" layer="-1.00" shape="2132.974317,1266.227859 2138.376677,1260.149733 2153.625565,1275.844311 2148.981597,1280.407943 2132.974317,1266.227859"/>
    <poly id="1168918845" type="amenity.hospital" color="237,199,199" fill="1" layer="-1.00" shape="934.307853,1532.070840 943.093841,1541.809810 1001.539480,1493.028919 1003.780512,1490.376455 993.631131,1481.344191 934.307853,1532.070840"/>
    <poly id="1197664343" type="man_made.bridge" color="255,230,230" fill="1" layer="-1.00" shape="336.877238,441.283365 333.188351,441.822480 342.701701,506.072675 346.866560,505.467567 352.286290,504.675402 342.762146,440.425195 336.877238,441.283365"/>
    <poly id="1202491465" type="building.chapel" color="255,230,230" fill="1" layer="-1.00" shape="1371.239685,1667.790946 1375.271698,1670.824385 1380.393071,1664.126565 1376.361058,1661.093125 1371.239685,1667.790946"/>
    <poly id="1202491466" type="building.chapel" color="255,230,230" fill="1" layer="-1.00" shape="1463.085771,1727.827368 1465.267693,1731.500778 1470.927179,1728.187532 1468.745257,1724.514121 1463.085771,1727.827368"/>
    <poly id="1202491467" type="building.yes" color="255,230,230" fill="1" layer="-1.00" shape="1476.878026,1631.047963 1476.873073,1637.241131 1482.670537,1637.245768 1482.675491,1631.052600 1476.878026,1631.047963"/>
    <poly id="1202491468" type="building.yes" color="255,230,230" fill="1" layer="-1.00" shape="1467.231907,1628.662515 1466.965521,1637.166854 1474.363600,1637.393954 1474.629997,1628.878555 1467.231907,1628.662515"/>
    <poly id="1202491469" type="amenity.fast_food" color="237,199,199" fill="1" layer="-1.00" shape="1563.954297,1838.965040 1575.377279,1850.940312 1587.814366,1839.238576 1576.391395,1827.252240 1563.954297,1838.965040"/>
    <poly id="1202491469#1" type="building.yes" color="255,230,230" fill="1" layer="-1.00" shape="1563.954297,1838.965040 1575.377279,1850.940312 1587.814366,1839.238576 1576.391395,1827.252240 1563.954297,1838.965040"/>
    <poly id="1202491470" type="building.yes" color="255,230,230" fill="1" layer="-1.00" shape="1570.565378,1741.671181 1586.940099,1756.238297 1604.954221,1736.235567 1625.792795,1754.765506 1639.433311,1739.625341 1602.209192,1706.528248 1570.565378,1741.671181"/>
    <poly id="1202491471" type="building.yes" color="255,230,230" fill="1" layer="-1.00" shape="1542.365632,1811.697749 1544.483793,1813.933414 1541.734430,1816.519070 1550.531298,1825.782711 1554.135771,1822.401477 1558.015461,1826.496510 1566.858874,1818.198125 1565.432358,1816.692923 1568.939419,1813.400087 1555.571208,1799.322001 1542.365632,1811.697749"/>
    <poly id="1202491472" type="building.residential" color="255,230,230" fill="1" layer="-1.00" shape="1547.437843,1785.414012 1555.564644,1794.024622 1566.767692,1783.593698 1605.823778,1825.019824 1622.655423,1809.351375 1583.275131,1767.582128 1586.056961,1764.985443 1578.265184,1756.717930 1547.437843,1785.414012"/>
    <poly id="1202667397" type="building.yes" color="255,230,230" fill="1" layer="-1.00" shape="1177.826141,458.720253 1178.930071,471.649356 1187.345984,470.937138 1186.231242,458.008026 1177.826141,458.720253"/>
    <poly id="1202667398" type="building.yes" color="255,230,230" fill="1" layer="-1.00" shape="1167.452638,459.143394 1168.890139,474.295663 1178.755655,473.363398 1177.318160,458.211129 1167.452638,459.143394"/>
    <poly id="1202667399" type="building.yes" color="255,230,230" fill="1" layer="-1.00" shape="1157.003820,459.057755 1157.839816,468.845826 1168.062221,467.991253 1167.237046,458.203190 1157.003820,459.057755"/>
    <poly id="1202667400" type="building.yes" color="255,230,230" fill="1" layer="-1.00" shape="1139.889052,462.649599 1141.986635,477.481668 1154.254069,475.755019 1152.145667,460.934000 1139.889052,462.649599"/>
    <poly id="1203045050" type="building.yes" color="255,230,230" fill="1" layer="-1.00" shape="470.516825,1464.761050 476.834068,1478.224941 505.766871,1464.843208 499.460464,1451.368259 470.516825,1464.761050"/>
    <poly id="1203045051" type="building.yes" color="255,230,230" fill="1" layer="-1.00" shape="628.523622,1235.004712 634.508599,1244.476003 639.583890,1241.305901 633.609730,1231.834617 628.523622,1235.004712"/>
    <poly id="1203045052" type="building.yes" color="255,230,230" fill="1" layer="-1.00" shape="628.394515,1220.008301 636.312707,1233.274391 647.783218,1226.503891 639.854204,1213.248849 628.394515,1220.008301"/>
    <poly id="1203045053" type="building.yes" color="255,230,230" fill="1" layer="-1.00" shape="627.352504,1252.952939 636.438967,1266.065097 651.416625,1255.813634 646.673528,1248.953270 643.156373,1251.361481 638.813019,1245.098624 627.352504,1252.952939"/>
    <poly id="1203045054" type="leisure.park" color="207,245,201" fill="1" layer="-2.00" shape="763.425825,1429.839461 769.517260,1427.400078 783.269962,1462.579059 765.721029,1469.046204 763.425825,1429.839461"/>
    <poly id="1203045055" type="building.yes" color="255,230,230" fill="1" layer="-1.00" shape="738.117708,1469.423024 743.821464,1478.772475 752.197132,1473.713813 750.263469,1470.549380 752.817286,1469.014119 749.036370,1462.840150 738.117708,1469.423024"/>
    <poly id="1203045056" type="building.yes" color="255,230,230" fill="1" layer="-1.00" shape="730.804350,1457.451296 738.096220,1469.235001 748.138426,1463.093819 746.572019,1460.571105 751.300941,1457.688297 745.564674,1448.416235 730.804350,1457.451296"/>
    <poly id="1203045057" type="landuse.religious" color="194,194,130" fill="1" layer="-3.00" shape="601.123909,1308.129433 673.910155,1261.559602 739.389900,1376.637072 747.786713,1400.277124 743.425978,1402.585138 737.700206,1393.711218 730.233592,1398.107032 703.283554,1350.664289 674.413039,1367.142439 702.369517,1413.944492 688.723688,1422.427474 682.058155,1411.905018 667.189535,1421.116979 601.123909,1308.129433"/>
    <poly id="1203045062" type="leisure.pitch" color="207,245,201" fill="1" layer="-2.00" shape="511.841492,1314.265398 523.864305,1334.866854 533.733103,1329.178886 521.710296,1308.577426 511.841492,1314.265398"/>
    <poly id="1203045062#1" type="sport.tennis" color="79,230,125" fill="1" layer="-2.00" shape="511.841492,1314.265398 523.864305,1334.866854 533.733103,1329.178886 521.710296,1308.577426 511.841492,1314.265398"/>
    <poly id="1203045063" type="building.yes" color="255,230,230" fill="1" layer="-1.00" shape="506.393644,1323.772178 514.052300,1337.004856 520.220273,1333.481669 512.561619,1320.248989 506.393644,1323.772178"/>
    <poly id="1203045064" type="building.yes" color="255,230,230" fill="1" layer="-1.00" shape="528.805699,1308.693435 536.409895,1322.412684 542.090829,1319.298321 534.486635,1305.579071 528.805699,1308.693435"/>
    <poly id="1203045065" type="building.yes" color="255,230,230" fill="1" layer="-1.00" shape="633.934093,1429.297380 638.330692,1436.610905 646.857771,1431.563386 649.072264,1435.258869 665.174177,1425.716069 658.563099,1414.695996 633.934093,1429.297380"/>
    <poly id="1203045067" type="building.yes" color="255,230,230" fill="1" layer="-1.00" shape="724.235831,1279.038753 729.939984,1287.934770 744.592435,1278.645262 738.888277,1269.760301 724.235831,1279.038753"/>
    <poly id="1203045068" type="building.yes" color="255,230,230" fill="1" layer="-1.00" shape="723.691177,1298.049146 738.679751,1301.710250 742.607462,1285.887525 736.637980,1284.434161 735.867608,1287.563328 732.212380,1286.675770 731.398624,1289.959734 726.023937,1288.639541 723.691177,1298.049146"/>
    <poly id="1203045069" type="building.yes" color="255,230,230" fill="1" layer="-1.00" shape="774.150998,1253.784825 776.884278,1257.989445 781.202125,1255.227975 790.028552,1268.815532 798.620964,1263.314684 787.072094,1245.500393 774.150998,1253.784825"/>
    <poly id="1203053272" type="building.yes" color="255,230,230" fill="1" layer="-1.00" shape="2145.570827,1769.842795 2154.978005,1773.289984 2162.826388,1752.084841 2153.430010,1748.648718 2145.570827,1769.842795"/>
    <poly id="1203053273" type="building.yes" color="255,230,230" fill="1" layer="-1.00" shape="2129.994221,1797.765587 2148.073657,1803.940500 2153.299515,1788.804713 2135.230877,1782.640865 2129.994221,1797.765587"/>
    <poly id="1203053280" type="building.yes" color="255,230,230" fill="1" layer="-1.00" shape="2015.591057,1746.478272 2003.971269,1776.848474 2014.373154,1780.771975 2019.478492,1767.427661 2022.170869,1768.447320 2026.311500,1757.634781 2023.608306,1756.615113 2025.982127,1750.412828 2015.591057,1746.478272"/>
    <poly id="1203053281" type="building.yes" color="255,230,230" fill="1" layer="-1.00" shape="1981.419888,1842.610354 1973.213390,1865.474143 1981.766421,1868.511379 1989.983742,1845.647602 1981.419888,1842.610354"/>
    <poly id="1205481634" type="amenity.school" color="237,199,199" fill="1" layer="-2.00" shape="513.804641,1491.479962 508.284049,1468.782214 490.765716,1421.004051 476.861570,1385.305330 457.080962,1339.571428 572.358818,1271.667254 595.864818,1311.221987 600.583060,1308.173255 661.669276,1412.210056 614.749565,1438.837835 566.879138,1464.137863 513.804641,1491.479962"/>
    <poly id="1234553360" type="amenity.police" color="237,199,199" fill="1" layer="-1.00" shape="445.760171,1035.732711 467.891510,1020.255571 490.057902,1058.183472 473.293379,1071.209531 445.760171,1035.732711"/>
    <poly id="1234553361" type="building.yes" color="255,230,230" fill="1" layer="-1.00" shape="453.216795,1044.541523 464.227869,1058.794181 469.985542,1054.396991 458.974469,1040.144331 453.216795,1044.541523"/>