<?xml version="1.0" encoding="UTF-8"?>

<!-- generated on 2024-08-23 21:13:45.222463 by randomTrips.py v1_18_0+0000-03ecfdea036
<configuration>
    <net-file value="osm.net.xml.gz"/>
    <output-trip-file value="osm.motorcycle.trips.xml"/>
    <route-file value="osm.motorcycle.rou.xml"/>
    <prefix value="motorcycle"/>
    <trip-attributes value="departLane=&quot;best&quot;"/>
    <fringe-start-attributes value="departSpeed=&quot;max&quot;"/>
    <vehicle-class value="motorcycle"/>
    <fringe-factor value="2"/>
    <vclass value="motorcycle"/>
    <via-edge-types value="highway.motorway,highway.motorway_link,highway.trunk_link,highway.primary_link,highway.secondary_link,highway.tertiary_link"/>
    <max-distance value="1200.0"/>
    <remove-loops value="True"/>
    <validate value="True"/>
    <insertion-density value="4.0"/>
</configuration>
-->

<!-- generated on 2024-08-23 21:13:45 by Eclipse SUMO duarouter Version 1.18.0
<configuration xmlns:xsi="http://www.w3.org/2001/XMLSchema-instance" xsi:noNamespaceSchemaLocation="http://sumo.dlr.de/xsd/duarouterConfiguration.xsd">

    <input>
        <net-file value="osm.net.xml.gz"/>
        <route-files value="osm.motorcycle.trips.xml"/>
    </input>

    <output>
        <output-file value="osm.motorcycle.rou.xml"/>
        <alternatives-output value="NUL"/>
    </output>

    <processing>
        <remove-loops value="true"/>
    </processing>

    <time>
        <begin value="0.0"/>
        <end value="3600.0"/>
    </time>

    <report>
        <no-warnings value="true"/>
        <ignore-errors value="true"/>
        <no-step-log value="true"/>
    </report>

</configuration>
-->

<routes xmlns:xsi="http://www.w3.org/2001/XMLSchema-instance" xsi:noNamespaceSchemaLocation="http://sumo.dlr.de/xsd/routes_file.xsd">
    <vType id="motorcycle_motorcycle" vClass="motorcycle"/>
    <vehicle id="motorcycle0" type="motorcycle_motorcycle" depart="0.00" departLane="best">
        <route edges="-23519660#1 -23519660#0 -23519632 -23519667#1 -23519667#0 -23518788#10"/>
    </vehicle>
    <vehicle id="motorcycle1" type="motorcycle_motorcycle" depart="7.18" departLane="best">
        <route edges="23520535#1 -23519061#2 -23519061#1 -23519061#0 -23520999#2 -23519391#1 600501527#2 23519257 25055326#0 25055326#1 -23519463 601444720 -601444719#1 -601444719#0 -252223483#5 -23519521 23520374#0 23520374#1 23520374#2"/>
    </vehicle>
    <vehicle id="motorcycle2" type="motorcycle_motorcycle" depart="14.37" departLane="best">
        <route edges="272595409#3 272595409#4 272595409#5 272595409#6 272595409#7 721779874 793411605 763589722 721779676 763589723 252223484#0 252223486 252223483#0 252223483#1 -23519688#1 23521793 -23519204#0"/>
    </vehicle>
    <vehicle id="motorcycle3" type="motorcycle_motorcycle" depart="21.55" departLane="best">
        <route edges="23520448#4 836685800#0 23522098#0 23522098#1 23522098#2 23522098#3 23522103 23521332#3 -23520999#4 23520535#0 23518978#0"/>
    </vehicle>
    <vehicle id="motorcycle4" type="motorcycle_motorcycle" depart="28.74" departLane="best">
        <route edges="-23518788#1 -23518788#0 -272595409#4 -272595409#3 -272595409#2 -272595409#1 -836685800#2 -836685800#1 23522098#0 23522098#1 23522098#2 23522098#3 23522103 23522126 23519854#6 -23520349#2"/>
    </vehicle>
    <vehicle id="motorcycle5" type="motorcycle_motorcycle" depart="35.92" departLane="best">
        <route edges="23519706#3 23519706#4 -23519229#2 -23519229#1 -23519024#5 -23519024#4 -23519024#3 -23519257 23519173#0"/>
    </vehicle>
    <vehicle id="motorcycle6" type="motorcycle_motorcycle" depart="43.11" departLane="best">
        <route edges="-23520484#0 -23519483#4 -23519483#3 23519080 23520692 23520880#1 23520880#2 23519339 -282035194 -724187422#0 23520886#0 23518777#0 23518777#1 23519584"/>
    </vehicle>
    <vehicle id="motorcycle7" type="motorcycle_motorcycle" depart="50.29" departLane="best">
        <route edges="-23521401#2 -23521401#1 -23521401#0 -23540252 23519706#0 23519706#1 -23518959#4 23519479#0 23519479#1 23519479#2 23519229#2 23519706#5 23519706#6 23519706#7 23519706#8 -23521696#2 243777837#0 -942212143 -188701944#0"/>
    </vehicle>
    <vehicle id="motorcycle8" type="motorcycle_motorcycle" depart="57.48" departLane="best">
        <route edges="-23521401#10 -23521401#9 -23521401#8 -23521401#7 -23521401#6 -23521401#3 -23521401#2 -23521401#1 -23521401#0 -23540252 23519706#0 -23519061#3 -23519061#2 -23519061#1 -23519061#0 -23520999#2 -23519391#1 600501527#2 23519257 25055326#0 25055326#1 -23519463 601444720 -601444719#1 -601444719#0 -252223483#5 -23519521 23520374#0 23520628"/>
    </vehicle>
    <vehicle id="motorcycle9" type="motorcycle_motorcycle" depart="64.66" departLane="best">
        <route edges="23521920 23521086 -23521107#1 -23521107#0 272595409#3 272595409#4 23518788#0 23519886#0 23519886#1 23519724#0 23519724#1 23519868 23521317 -23519717#4 -23519717#3 -23519717#2 23519740"/>
    </vehicle>
    <vehicle id="motorcycle10" type="motorcycle_motorcycle" depart="71.85" departLane="best">
        <route edges="-836685800#1 23522098#0 23522098#1 23522098#2"/>
    </vehicle>
    <vehicle id="motorcycle11" type="motorcycle_motorcycle" depart="79.03" departLane="best">
        <route edges="23521979 -23519204#4 -23519204#3 -23519717#4 23519972#4 23519972#5 -23519632 252223483#4 252223483#5 23521120 601444719#1 23520863 23519463 23519563#0 23519546 -23519706#5 -23519706#4 -23519706#3"/>
    </vehicle>
    <vehicle id="motorcycle12" type="motorcycle_motorcycle" depart="86.22" departLane="best">
        <route edges="23518846#1 838916319#0 838916319#1 23520170 724187421 724187424#0 23521063#1 838886529"/>
    </vehicle>
    <vehicle id="motorcycle13" type="motorcycle_motorcycle" depart="93.40" departLane="best">
        <route edges="-252223483#1 23519724#1 23519724#2 23521287#1 -23521904#4 23521979 23519204#5"/>
    </vehicle>
    <vehicle id="motorcycle14" type="motorcycle_motorcycle" depart="100.59" departLane="best">
        <route edges="-23521743#2 243777837#3 -23520374#2 -23520374#1 -23520374#0 23519717#0 23519527 23519762"/>
    </vehicle>
    <vehicle id="motorcycle15" type="motorcycle_motorcycle" depart="107.77" departLane="best">
        <route edges="23522098#2 23522098#3 23522103 23521332#3 -23520999#4 -23520999#3 -23520999#2 23519391#2 23518974#1 23518974#2 23519917 -23520062 23519479#2"/>
    </vehicle>
    <vehicle id="motorcycle16" type="motorcycle_motorcycle" depart="114.95" departLane="best">
        <route edges="23520170 724187421 724187423 -838919069#3 -838919069#2 838919378 -838919379#1 23521917#2 23521917#3 23521917#5 -23540252 23519706#0 -23519061#3 -23519061#2 -23519061#1 23518974#0 23518974#1 -23518959#1"/>
    </vehicle>
    <vehicle id="motorcycle17" type="motorcycle_motorcycle" depart="122.14" departLane="best" departSpeed="max">
        <route edges="-23519103#2 -23519103#1 -23519103#0 -838886530#5 -838886530#4 -838886530#2 838882824 -23520851"/>
    </vehicle>
    <vehicle id="motorcycle18" type="motorcycle_motorcycle" depart="129.32" departLane="best">
        <route edges="23519593 -193054993 836685802#0 836685802#1 23520967#0 23520967#1 23520967#2 23520967#3 23520967#4 -23520305 -23521107#1 -23521107#0 -272595409#2"/>
    </vehicle>
    <vehicle id="motorcycle19" type="motorcycle_motorcycle" depart="136.51" departLane="best">
        <route edges="23519706#1 -23518959#4 23519479#0 23519479#1 23519479#2 -23519229#1 -23519024#5 -23519024#4 -23519024#3 25055326#0 25055326#1 -23519463 601444720 -601444719#1 -601444719#0 -252223483#5 -23519521 23519717#0"/>
    </vehicle>
    <vehicle id="motorcycle20" type="motorcycle_motorcycle" depart="143.69" departLane="best">
        <route edges="-23519854#6 -23522126 -23522103 -23522098#3 -23522098#2 -23522098#1 -23522098#0 836685800#1 836685800#2 23520814#0 23520814#1 23520967#0 23520967#1 23520967#2 23520967#3"/>
    </vehicle>
    <vehicle id="motorcycle21" type="motorcycle_motorcycle" depart="150.88" departLane="best" departSpeed="max">
        <route edges="-23519846 -23520021 -23519917 -23518974#2 -23518974#1 -23518974#0 23519061#1 23519061#2 23519061#3 -23519706#0 23519339 -282035194 724187422#1 936923544#0 936923544#1 936923544#2 936923544#3 596568243 -596568238#0"/>
    </vehicle>
    <vehicle id="motorcycle22" type="motorcycle_motorcycle" depart="158.06" departLane="best">
        <route edges="23519006#0 -23518802#1 -23518802#0 836685805#4 -23520448#4"/>
    </vehicle>
    <vehicle id="motorcycle23" type="motorcycle_motorcycle" depart="165.25" departLane="best">
        <route edges="23521917#2 23521917#3 23521917#5 23521401#0 23521401#1 23521401#2 23521401#3 23521401#6 23521401#7"/>
    </vehicle>
    <vehicle id="motorcycle24" type="motorcycle_motorcycle" depart="172.43" departLane="best">
        <route edges="-23520374#1 -23520374#0 23519521 252223483#5 23521120 601444719#1"/>
    </vehicle>
    <vehicle id="motorcycle25" type="motorcycle_motorcycle" depart="179.62" departLane="best">
        <route edges="252223483#0 23519724#1 23519724#2 23521287#1 -23521904#4"/>
    </vehicle>
    <vehicle id="motorcycle26" type="motorcycle_motorcycle" depart="186.80" departLane="best">
        <route edges="596568240#0 23519261 596568239#2 23519164 23519248 23518904 23519483#0 23519483#1 23519483#3 23519483#4 836685805#1 836685805#2 23518889#0 23518889#1 23519593 -193054993"/>
    </vehicle>
    <vehicle id="motorcycle27" type="motorcycle_motorcycle" depart="193.99" departLane="best">
        <route edges="23520999#4 -23521332#3 -23522103 -23522098#3 -23522098#2 -23522098#1 -23522098#0 836685800#1 836685800#2 23520814#0 23520814#1 23520967#0 23520967#1 23520967#2 23520967#3"/>
    </vehicle>
    <vehicle id="motorcycle28" type="motorcycle_motorcycle" depart="201.17" departLane="best">
        <route edges="23519024#2 -23519257 -600501527#2 -600501527#1 -600501527#0 -23522098#4 -23522098#3 -23522098#2 -23522098#1 -23522098#0 836685800#1 836685800#2 272595409#1 272595409#2 23521107#0 23521107#1"/>
    </vehicle>
    <vehicle id="motorcycle29" type="motorcycle_motorcycle" depart="208.35" departLane="best">
        <route edges="23519159#1 23519159#2 23520410#0 23520410#1 23519854#3 23519854#4 23519854#5 23519854#6 23520349#3 23520619 23518978#0 23518978#1 599998851"/>
    </vehicle>
    <vehicle id="motorcycle30" type="motorcycle_motorcycle" depart="215.54" departLane="best">
        <route edges="-291263584#2 -291263584#1 -836685801#0 -23520814#1 -23520814#0 -836685800#2 -836685800#1 23522098#0 23522098#1 23522098#2 23522098#3 23522103 23521332#3 -23520999#4 23520535#0"/>
    </vehicle>
    <vehicle id="motorcycle31" type="motorcycle_motorcycle" depart="222.72" departLane="best" departSpeed="max">
        <route edges="942162016 -272595409#6 -272595409#5 -272595409#4 -272595409#3 -272595409#2 -272595409#1 -836685800#2 -836685800#1 23522098#0 23518926#0 23518926#1 23519854#1 23519006#2"/>
    </vehicle>
    <vehicle id="motorcycle32" type="motorcycle_motorcycle" depart="229.91" departLane="best">
        <route edges="-23519173#1 -23519173#0 -600501527#2 23519391#1 23520999#2 23519061#0 23519061#1 23518978#1 23518978#2 -23518959#2"/>
    </vehicle>
    <vehicle id="motorcycle33" type="motorcycle_motorcycle" depart="237.09" departLane="best">
        <route edges="-23519259 -23519041#3 -23519041#2 -23519173#1 -23519173#0 -600501527#2 23519391#1 23520999#2 23520999#3 23520999#4 -23521332#3 -23521332#2 -23521332#1 -23521356 -23519854#3"/>
    </vehicle>
    <vehicle id="motorcycle34" type="motorcycle_motorcycle" depart="244.28" departLane="best" departSpeed="max">
        <route edges="23521181 -23519159#2 -23519159#1 -23518926#3 -23518926#2 -23519854#0 -836685805#1 -23519483#4 -23519483#3 -23519483#1 -23519483#0 -23540254 -23519248 838916319#0 838916319#1 23520170 724187421 724187423 -838919069#3 838919068 -838886530#2"/>
    </vehicle>
    <vehicle id="motorcycle35" type="motorcycle_motorcycle" depart="251.46" departLane="best" departSpeed="max">
        <route edges="-23519025 -23519218 -838919067#1 -838919067#0 -838919068 -838919069#2 838919378 936923544#2 936923544#3 596568243 596568239#1 596568239#2 23519164 23519248 23518904 23519483#0 23519483#1 23519483#3 23519483#4 836685805#1 23519854#0 23518926#2 23518926#3 23519159#1 -600015262#0"/>
    </vehicle>
    <vehicle id="motorcycle36" type="motorcycle_motorcycle" depart="258.65" departLane="best">
        <route edges="936923544#3 724187421 724187423 -838919069#3 -838919069#2 838919378 -838919379#1 23521917#2 23521917#3 23521917#5 -23540252 23519706#0 -23519061#3 -23519061#2"/>
    </vehicle>
    <vehicle id="motorcycle37" type="motorcycle_motorcycle" depart="265.83" departLane="best">
        <route edges="202497034 -23520484#2 -23520484#1 -23520484#0 -23519483#4 -23519483#3 23519080 23520692 23520880#1 23520880#2 23519339 -282035194 -724187422#0 23520886#0"/>
    </vehicle>
    <vehicle id="motorcycle38" type="motorcycle_motorcycle" depart="273.02" departLane="best">
        <route edges="-23519377 -23519041#2 -23519173#1 -23519173#0 -600501527#2 23519391#1 23520999#2 23519061#0 23519061#1 23519061#2 23519061#3 -23519706#0 23519339 23521401#0 -902581873"/>
    </vehicle>
    <vehicle id="motorcycle40" type="motorcycle_motorcycle" depart="287.39" departLane="best">
        <route edges="-23521049#0 838919378 936923544#2 936923544#3 596568243 596568239#1 596568239#2 23519164 23519248 23518904 23519483#0 23519483#1 23519080"/>
    </vehicle>
    <vehicle id="motorcycle41" type="motorcycle_motorcycle" depart="294.57" departLane="best">
        <route edges="252223483#2 23519204#2 -23519717#4 -23519717#3 -23519717#2 -23519717#1 -23519717#0 23522052#0"/>
    </vehicle>
    <vehicle id="motorcycle42" type="motorcycle_motorcycle" depart="301.76" departLane="best">
        <route edges="-23519041#2 23519173#2 23519667#0 -23520994 -23521793 23519688#1 23519688#2 23521317"/>
    </vehicle>
    <vehicle id="motorcycle43" type="motorcycle_motorcycle" depart="308.94" departLane="best">
        <route edges="-23520967#2 -23520967#1 -23520967#0 -836685802#1 -836685802#0 193054993 -23519593 -23518889#1 -23518889#0 -836685805#2 -836685805#1 -23519483#4 -23519483#3 -23519582#1"/>
    </vehicle>
    <vehicle id="motorcycle44" type="motorcycle_motorcycle" depart="316.12" departLane="best">
        <route edges="23520999#4 -23521332#3 -23522103 -23522098#3 -23522098#2 -23522098#1 -23522098#0 836685800#1 836685800#2 272595409#1 272595409#2 272595409#3 272595409#4 272595409#5"/>
    </vehicle>
    <vehicle id="motorcycle45" type="motorcycle_motorcycle" depart="323.31" departLane="best">
        <route edges="-23518889#2 23519593 -193054993 836685802#0 836685802#1 23520967#0 23520967#1 23520967#2 23520967#3 23520967#4"/>
    </vehicle>
    <vehicle id="motorcycle46" type="motorcycle_motorcycle" depart="330.49" departLane="best">
        <route edges="600501526#1 -836685800#1 23522098#0 23522098#1 23522098#2 23522098#3 23522103 23521332#3 -23520999#4 -23520999#3 -23520999#2 -23520999#1 -23520999#0 23519024#4 23519032"/>
    </vehicle>
    <vehicle id="motorcycle47" type="motorcycle_motorcycle" depart="337.68" departLane="best">
        <route edges="-23519483#1 23520880#0 23520880#1 23520880#2 23519706#0 -23519061#3 -23519061#2 -23518978#0 -23520619"/>
    </vehicle>
    <vehicle id="motorcycle48" type="motorcycle_motorcycle" depart="344.86" departLane="best">
        <route edges="-23521917#3 -23521917#2 838919379#1 936923544#2 936923544#3 596568243 596568239#1 596568239#2 23519164 23519248 23518904 23519483#0 23519483#1 -23519582#1"/>
    </vehicle>
    <vehicle id="motorcycle49" type="motorcycle_motorcycle" depart="352.05" departLane="best">
        <route edges="-23519041#4 -23519041#3 -23519041#2 -23519173#1 23519024#2 23519024#3 23519024#4 23519024#5 23519229#1 23519229#2 23519706#5 23519706#6 23519858"/>
    </vehicle>
    <vehicle id="motorcycle50" type="motorcycle_motorcycle" depart="359.23" departLane="best" departSpeed="max">
        <route edges="-23520565 23520783#2 23520783#3 755073153 1053485826#0 1053485826#1 596568240#0 23519261 596568239#2 23519164 23519248 23518904 23519483#0 23519483#1 23519483#3 23519483#4 836685805#1 23519854#0 23519854#1 23519854#2 -23520410#1 600015258"/>
    </vehicle>
    <vehicle id="motorcycle51" type="motorcycle_motorcycle" depart="366.42" departLane="best">
        <route edges="23522098#0 23522098#1 23522098#2 23522098#3 23522103 23521332#3 -23520999#4 -23520999#3 23519061#0 23519061#1"/>
    </vehicle>
    <vehicle id="motorcycle52" type="motorcycle_motorcycle" depart="373.60" departLane="best">
        <route edges="23520410#0 23520410#1 23519854#3 23521356 23521332#1 23521332#2 23521332#3 -23520999#4 -23520999#3 -23520999#2 -23519391#1 600501527#2 23519257 25055326#0 25055326#1 -23519463 601444720 -601444719#1 -601444719#0 -252223483#5 -252223483#4 23519632 23519660#0 23519660#1"/>
    </vehicle>
    <vehicle id="motorcycle53" type="motorcycle_motorcycle" depart="380.79" departLane="best">
        <route edges="-838882824 838886530#2 838886530#4 838886530#5 -838885129 -838919069#0 23519131#0 23519131#1 -724187422#1 -724187422#0 23521823#0 23521823#1 23521579"/>
    </vehicle>
    <vehicle id="motorcycle54" type="motorcycle_motorcycle" depart="387.97" departLane="best">
        <route edges="838919378 -838919379#1 23521917#2 23521917#3 23521917#5 -23540252 23519706#0 23519706#1 -23518959#4 23519479#0 23519479#1 23519479#2 -23519229#1 -23519229#0"/>
    </vehicle>
    <vehicle id="motorcycle55" type="motorcycle_motorcycle" depart="395.16" departLane="best">
        <route edges="421435711#0 421435711#1 23519041#5 23520563#0 23519024#0 23519391#0 23519391#1 23520999#2 23520999#3 23520999#4 -23521332#3 -23522103"/>
    </vehicle>
    <vehicle id="motorcycle56" type="motorcycle_motorcycle" depart="402.34" departLane="best">
        <route edges="23522098#2 23522098#3 23522098#4 600501527#0 600501527#1 600501527#2 23519173#0 23519173#1 23519173#2 23519667#0 -23520994"/>
    </vehicle>
    <vehicle id="motorcycle57" type="motorcycle_motorcycle" depart="409.53" departLane="best" departSpeed="max">
        <route edges="-600098316 838916319#4 23521917#0 23521917#1 23521917#2 23521917#3 23521917#5 23521401#0"/>
    </vehicle>
    <vehicle id="motorcycle58" type="motorcycle_motorcycle" depart="416.71" departLane="best">
        <route edges="23518959#3 23519479#0 -23519822 -23518974#2 -23518974#1"/>
    </vehicle>
    <vehicle id="motorcycle59" type="motorcycle_motorcycle" depart="423.89" departLane="best">
        <route edges="942212143 -243777837#0 23521696#2 -23519706#8 -23519706#7 -23519706#6 -23519706#5 -23519229#2 -23519479#2 -23519479#1 -23519479#0 23518959#4 -23519706#1 -23519706#0 23519339 23521401#0 23521401#1 23521401#2 23521401#3 23521401#6 23521401#7 23521401#8 23521401#9 23521401#10 23522086#0 23522086#1"/>
    </vehicle>
    <vehicle id="motorcycle60" type="motorcycle_motorcycle" depart="431.08" departLane="best">
        <route edges="23521995 -23519204#3 -23519717#4 23519972#4 23519972#5 -23519632 252223483#4 252223483#5 23521120 601444719#1 23520863 23519463 -25055326#1 -25055326#0 -23519257 -600501527#2 23519391#1 23520999#2 23520999#3 23520999#4 -23521332#3 23522126 23519854#6"/>
    </vehicle>
    <vehicle id="motorcycle61" type="motorcycle_motorcycle" depart="438.26" departLane="best">
        <route edges="-838919379#1 23521917#2 23521917#3 23521917#5 -23540252 23519706#0 -23519061#3 -23519061#2 -23519061#1 -23519061#0 23520999#3 23520999#4 -23521332#3 -23522103 -23522098#3 -23522098#2 -23522098#1 -23522098#0 -836685800#0 -23520448#4"/>
    </vehicle>
    <vehicle id="motorcycle62" type="motorcycle_motorcycle" depart="445.45" departLane="best">
        <route edges="-291263584#3 -291263584#2 -291263584#1 -836685801#0 -23520814#1 -23520814#0 -836685800#2 -836685800#1 23522098#0 23522098#1 23522098#2 23522098#3 23522098#4 600501527#0 600501527#1 600501527#2 23519173#0 -23519024#1"/>
    </vehicle>
    <vehicle id="motorcycle63" type="motorcycle_motorcycle" depart="452.63" departLane="best">
        <route edges="-23520999#4 -23520999#3 23519061#0 23519061#1 23519061#2 23519061#3 -23519706#0 23519339 -282035194 -724187422#0 23521823#0 23521823#1 23521579"/>
    </vehicle>
    <vehicle id="motorcycle64" type="motorcycle_motorcycle" depart="459.82" departLane="best">
        <route edges="-836685800#1 23522098#0 23522098#1 23522098#2 23522098#3 23522103 23521332#3 -23520999#4 -23520999#3 23519061#0 23519061#1 23519061#2 23519061#3 -23519706#0 23519339 -282035194 724187422#1 936923544#0"/>
    </vehicle>
    <vehicle id="motorcycle65" type="motorcycle_motorcycle" depart="467.00" departLane="best">
        <route edges="-23518978#1 23519061#2 23519061#3 -23519706#0 -23520880#2 -23520880#1"/>
    </vehicle>
    <vehicle id="motorcycle66" type="motorcycle_motorcycle" depart="474.19" departLane="best">
        <route edges="838886530#0 838886530#1 838886530#2 838886530#4 -23521049#0 838919378 936923544#2 936923544#3 596568243 596568239#1 596568239#2 23519164 23519248 23518904 23519483#0 23519483#1"/>
    </vehicle>
    <vehicle id="motorcycle67" type="motorcycle_motorcycle" depart="481.37" departLane="best">
        <route edges="-188701943 -23522088 -23520714 -23520658#1 -23520658#0 600483610#0 -600483609 -23521598 23519717#3 23519717#4 -23521317 -23519868 -23519724#1 -252223483#0"/>
    </vehicle>
    <vehicle id="motorcycle68" type="motorcycle_motorcycle" depart="488.56" departLane="best">
        <route edges="-23519724#1 -252223483#0 721779873 252223484#2 252223485 -272595409#7 -272595409#6 -272595409#5 -272595409#4 -272595409#3 23521107#0 23521107#1 23520305 -23520967#4 -23520967#3 -23520967#2 -23520967#1 -23520967#0 -836685802#1 -836685802#0 193054993 23520448#3 23520448#4 836685800#0 836685800#1"/>
    </vehicle>
    <vehicle id="motorcycle69" type="motorcycle_motorcycle" depart="495.74" departLane="best" departSpeed="max">
        <route edges="-23519103#2 -23519103#1 -23519103#0 -838886530#5 -23521049#0 838919378 936923544#2 936923544#3 596568243 596568239#1 596568239#2 23519164 23519248 23518904 23519483#0 23519483#1 -23519582#1 -23520038 -23520116#0"/>
    </vehicle>
    <vehicle id="motorcycle70" type="motorcycle_motorcycle" depart="502.93" departLane="best">
        <route edges="23519204#5 -23519206 23519972#2 23519972#3 -23519717#3 -23519717#2 -23519717#1 -23519717#0 23520374#0 23520374#1"/>
    </vehicle>
    <vehicle id="motorcycle71" type="motorcycle_motorcycle" depart="510.11" departLane="best">
        <route edges="-23520658#1 -23520658#0 -23519500#0"/>
    </vehicle>
    <vehicle id="motorcycle72" type="motorcycle_motorcycle" depart="517.29" departLane="best">
        <route edges="272595409#1 272595409#2 23521107#0 23521107#1 23520305 -23520967#4 -23520967#3 -23520967#2"/>
    </vehicle>
    <vehicle id="motorcycle73" type="motorcycle_motorcycle" depart="524.48" departLane="best">
        <route edges="23519204#5 -23519206 23519972#2 23519972#3 -23519717#3 -23519717#2 23519740 23519775"/>
    </vehicle>
    <vehicle id="motorcycle74" type="motorcycle_motorcycle" depart="531.66" departLane="best" departSpeed="max">
        <route edges="-600074311 -23519706#7 -23519706#6 -23520554 -23519563#0 -23519463 601444720 -601444719#1 -601444719#0 -252223483#5 -23519521"/>
    </vehicle>
    <vehicle id="motorcycle75" type="motorcycle_motorcycle" depart="538.85" departLane="best">
        <route edges="23518788#1 23521185#0 23521185#1 23519724#0 -252223483#0 721779873 252223484#2 793413520 793411605 763589722 721779676 252223487 760083147 760083145 600554931"/>
    </vehicle>
    <vehicle id="motorcycle76" type="motorcycle_motorcycle" depart="546.03" departLane="best">
        <route edges="-23520349#2 -23520999#4 -23520999#3 23519061#0 23519061#1 23519061#2 23519061#3 -23519706#0 23519339 -282035194 -724187422#0 23520886#0 23518777#0 23518777#1 23520868"/>
    </vehicle>
    <vehicle id="motorcycle77" type="motorcycle_motorcycle" depart="553.22" departLane="best">
        <route edges="23519854#3 23521356 -23521332#0 23518802#3 -23522098#2 -23522098#1 -23522098#0 836685800#1 836685800#2 23520814#0 23520814#1 23520967#0 23520967#1 23520967#2 23520967#3 23521708"/>
    </vehicle>
    <vehicle id="motorcycle78" type="motorcycle_motorcycle" depart="560.40" departLane="best">
        <route edges="23521696#2 -23519706#8 -23519706#7 -23519706#6 -23519706#5 -23519229#2 -23519479#2 -23519479#1 -23519479#0 23518959#4 -23519706#1 -23519706#0 23519339 23521401#0 23521401#1 23521401#2 23521401#3 23521401#6 23521401#7 23521401#8 23521401#9 23521401#10 23521401#11 23521401#12 23521401#13 23521166"/>
    </vehicle>
    <vehicle id="motorcycle79" type="motorcycle_motorcycle" depart="567.59" departLane="best">
        <route edges="23519056 23519972#3 23519717#4 -23521317 -23519688#2 -23519688#1 -23519688#0 -905683903 23520076 23520814#0 23520814#1 -836685802#1 -836685802#0 193054993"/>
    </vehicle>
    <vehicle id="motorcycle80" type="motorcycle_motorcycle" depart="574.77" departLane="best">
        <route edges="942192617 -23519103#1 -23519103#0 -838885129 -838919069#0 23519131#0 23519131#1 936923544#0 936923544#1"/>
    </vehicle>
    <vehicle id="motorcycle81" type="motorcycle_motorcycle" depart="581.96" departLane="best">
        <route edges="-23519061#0 23520999#3 23520999#4 -23521332#3 -23522103 -23522098#3 -23522098#2 -23522098#1 -23522098#0 -836685800#0 -23520448#4 -23520448#3"/>
    </vehicle>
    <vehicle id="motorcycle82" type="motorcycle_motorcycle" depart="589.14" departLane="best">
        <route edges="23520999#4 -23521332#3 -23522103 -23522098#3 -23522098#2 -23522098#1 -23522098#0 836685800#1 836685800#2 272595409#1 272595409#2 272595409#3 272595409#4 272595409#5 272595409#6 272595409#7 721779874 793411605 252223488 -252221727#3 -252221727#2 -600554930#2"/>
    </vehicle>
    <vehicle id="motorcycle83" type="motorcycle_motorcycle" depart="596.33" departLane="best">
        <route edges="252223483#4 252223483#5 23521120 601444719#1 23520863 23519463 -25055326#1 -25055326#0 -23519257 -600501527#2 -600501527#1 -600501527#0 -23522098#4 -23522098#3 -23522098#2 -23522098#1 -23522098#0 836685800#1 836685800#2 23520814#0 23520814#1 836685801#0 291263584#1 291263584#2 291263584#3"/>
    </vehicle>
    <vehicle id="motorcycle84" type="motorcycle_motorcycle" depart="603.51" departLane="best">
        <route edges="243777837#0 243777837#2 243777837#3 -23520374#2 -23520374#1 -23520374#0 23519717#0 23519717#1 23519740 -23519762"/>
    </vehicle>
    <vehicle id="motorcycle85" type="motorcycle_motorcycle" depart="610.70" departLane="best">
        <route edges="-23521823#2 -23521823#1 -23521823#0 724187422#0 282035194 -23540252 -23520880#2 -23520880#1 -23520692"/>
    </vehicle>
    <vehicle id="motorcycle86" type="motorcycle_motorcycle" depart="617.88" departLane="best">
        <route edges="23519391#1 23520999#2 23519061#0 23519061#1 23519061#2 23519061#3 -23519706#0 23519339 -282035194 724187422#1 -23519131#1 -23519131#0 838919069#0 838919069#1 838919069#2"/>
    </vehicle>
    <vehicle id="motorcycle87" type="motorcycle_motorcycle" depart="625.06" departLane="best">
        <route edges="23519706#8 -23521696#2 243777837#0 -942212143 -188701944#0"/>
    </vehicle>
    <vehicle id="motorcycle88" type="motorcycle_motorcycle" depart="632.25" departLane="best">
        <route edges="-23519660#0 -23519632 252223483#4 252223483#5 23521120 601444719#1 23520863 23519463 -25055326#1 -25055326#0 23519024#3 23519024#4 23519024#5 23519229#1 -23519479#2"/>
    </vehicle>
    <vehicle id="motorcycle89" type="motorcycle_motorcycle" depart="639.43" departLane="best">
        <route edges="-23519241 -23519972#4 -23519972#3 -23519972#2 23519206 23519204#6"/>
    </vehicle>
    <vehicle id="motorcycle90" type="motorcycle_motorcycle" depart="646.62" departLane="best">
        <route edges="23521101#1 -23521049#1 -23521049#0 838919378 -838919379#1 23521917#2 23521917#3 23521917#5 -23540252 23519706#0 23519706#1 23519706#2 23519706#3 23519706#4"/>
    </vehicle>
    <vehicle id="motorcycle91" type="motorcycle_motorcycle" depart="653.80" departLane="best">
        <route edges="23520374#0 -23520374#0"/>
    </vehicle>
    <vehicle id="motorcycle92" type="motorcycle_motorcycle" depart="660.99" departLane="best" departSpeed="max">
        <route edges="-918137127#1 -918137127#0 -836685802#0 193054993 23520448#3 23520448#4 -836685805#4 23518802#0 23518926#1 23519854#1 23519854#2 -23520410#1 600015258"/>
    </vehicle>
    <vehicle id="motorcycle93" type="motorcycle_motorcycle" depart="668.17" departLane="best">
        <route edges="23521920 23521086 -23521107#1 -23521107#0 272595409#3 272595409#4 23518788#0 23519886#0 23519886#1 23519724#0 23519724#1 23519724#2 23521287#1 -23521904#4 -23521904#3 -23521904#2 23521950 -23519204#6"/>
    </vehicle>
    <vehicle id="motorcycle94" type="motorcycle_motorcycle" depart="675.36" departLane="best" departSpeed="max">
        <route edges="-600105458 -23521587 -188701943 -23522088 -23521737#0 -23520515 -23519527 -23519717#0 23519521 252223483#5 23521120 601444719#1 23520863 23519463 -25055326#1 -25055326#0 -23519257 -600501527#2 23519391#1 23520999#2 23520999#3 23520999#4 -23521332#3"/>
    </vehicle>
    <vehicle id="motorcycle95" type="motorcycle_motorcycle" depart="682.54" departLane="best">