<?xml version="1.0" encoding="UTF-8"?>

<!-- generated on 2024-08-23 21:13:43.033133 by randomTrips.py v1_18_0+0000-03ecfdea036
<configuration>
    <net-file value="osm.net.xml.gz"/>
    <output-trip-file value="osm.bicycle.trips.xml"/>
    <route-file value="osm.bicycle.rou.xml"/>
    <prefix value="bike"/>
    <trip-attributes value="departLane=&quot;best&quot;"/>
    <fringe-start-attributes value="departSpeed=&quot;max&quot;"/>
    <vehicle-class value="bicycle"/>
    <fringe-factor value="2"/>
    <vclass value="bicycle"/>
    <via-edge-types value="highway.motorway,highway.motorway_link,highway.trunk_link,highway.primary_link,highway.secondary_link,highway.tertiary_link"/>
    <max-distance value="8000.0"/>
    <remove-loops value="True"/>
    <validate value="True"/>
    <insertion-density value="6.0"/>
</configuration>
-->

<!-- generated on 2024-08-23 21:13:42 by Eclipse SUMO duarouter Version 1.18.0
<configuration xmlns:xsi="http://www.w3.org/2001/XMLSchema-instance" xsi:noNamespaceSchemaLocation="http://sumo.dlr.de/xsd/duarouterConfiguration.xsd">

    <input>
        <net-file value="osm.net.xml.gz"/>
        <route-files value="osm.bicycle.trips.xml"/>
    </input>

    <output>
        <output-file value="osm.bicycle.rou.xml"/>
        <alternatives-output value="NUL"/>
    </output>

    <processing>
        <remove-loops value="true"/>
    </processing>

    <time>
        <begin value="0.0"/>
        <end value="3600.0"/>
    </time>

    <report>
        <no-warnings value="true"/>
        <ignore-errors value="true"/>
        <no-step-log value="true"/>
    </report>

</configuration>
-->

<routes xmlns:xsi="http://www.w3.org/2001/XMLSchema-instance" xsi:noNamespaceSchemaLocation="http://sumo.dlr.de/xsd/routes_file.xsd">
    <vType id="bike_bicycle" vClass="bicycle"/>
    <vehicle id="bike0" type="bike_bicycle" depart="0.00" departLane="best">
        <route edges="-23519508 23518777#2"/>
    </vehicle>
    <vehicle id="bike1" type="bike_bicycle" depart="4.76" departLane="best">
        <route edges="-23521101#0 -224702392#2 -224702392#1 -838882824 838886530#2 -838919068 -838919069#2 838919378 -936923544#1 181255488 23521917#5 -23540252 23519706#0 23519706#1 23519706#2 23519706#3 23519706#4 23519706#5 -23520554"/>
    </vehicle>
    <vehicle id="bike2" type="bike_bicycle" depart="9.53" departLane="best">
        <route edges="23520512 1017413434 23520007 1053485826#0 1053485826#1 596568240#0 596568240#1 596568242 596568229 724187423 -838919069#3 -838919069#2 838919378 -936923544#1 181255488 23521917#5 -23540252 23519706#0 23519706#1 23519706#2 23519706#3 23519706#4 23519706#5 23519706#6 23519706#7 23519706#8 -23521696#2 243777837#0 243777837#2 243777837#3 -23520374#2 23520354#0"/>
    </vehicle>
    <vehicle id="bike3" type="bike_bicycle" depart="14.29" departLane="best">
        <route edges="-272595409#1 -836685800#2 -836685800#1 -836685800#0 -836685805#4 -836685805#3 -836685805#2 -836685805#1 23519159#0 23519159#1 23519159#2"/>
    </vehicle>
    <vehicle id="bike4" type="bike_bicycle" depart="19.05" departLane="best" departSpeed="max">
        <route edges="-600074311 -23519706#7 -23519706#6 -23520554 -23519563#0 -23519463 -23518788#11"/>
    </vehicle>
    <vehicle id="bike5" type="bike_bicycle" depart="23.81" departLane="best">
        <route edges="23520410#1 23519854#3 23519854#4 23519854#5 23519854#6 23520349#3 23520619 23518978#0 -23519061#1 23518974#0 23518974#1 23518959#2"/>
    </vehicle>
    <vehicle id="bike6" type="bike_bicycle" depart="28.58" departLane="best">
        <route edges="-23518777#0 -23520886#0 724187422#0 282035194 -23540252 -23520880#2 -23520880#1 -23520692 -23520349#5 -23520349#4 -23520349#3 -23519854#6 -23519854#5 -23519854#4 -23519854#3 -23519854#2 -23519854#1 -23519854#0 836685805#2 836685805#3 836685805#4 836685800#0 836685800#1 836685800#2 23520814#0 23520814#1 -23520814#1 -23520814#0 -23519691 -23520342"/>
    </vehicle>
    <vehicle id="bike7" type="bike_bicycle" depart="33.34" departLane="best">
        <route edges="-23519688#3 -23519688#2 -252223483#1 -252223483#0 721779873 252223484#2 252223485 -272595409#7 -272595409#6 -272595409#5 -272595409#4 -272595409#3 -272595409#2 -272595409#1 -836685800#2 -836685800#1 -836685800#0 -836685805#4 -836685805#3 -836685805#2 -836685805#1 23519159#0"/>
    </vehicle>
    <vehicle id="bike8" type="bike_bicycle" depart="38.10" departLane="best">
        <route edges="23520448#2 23520448#3 23520448#4 -836685805#4 23518802#0 23518802#1 23518802#2 23518802#3 23522098#3 23522098#4 600501527#0 600501527#1 600501527#2 23519173#0 23519173#1 23519173#2 23519667#0 23519667#1 252223483#4 -23519521 23519717#0 23519527"/>
    </vehicle>
    <vehicle id="bike9" type="bike_bicycle" depart="42.86" departLane="best">
        <route edges="-23521401#12 -23521401#11 -23521401#10 -23521401#9 -23521401#8 -23521401#7 -23521401#6 -23521401#3 -23521401#2 -23521401#1 -23521401#0 -23540252 23519706#0 23519706#1 23519706#2 23519706#3 23519706#4 23519706#5 23519706#6 23519706#7 23519706#8 -23521696#2 243777837#0 -942212143 -188701944#0"/>
    </vehicle>
    <vehicle id="bike10" type="bike_bicycle" depart="47.63" departLane="best">
        <route edges="-23521401#0 -23521917#5 -23521917#3 -23521917#2 838919379#1 936923544#2 936923544#3 596568243 596568239#1 596568239#2 596568239#3 596568239#4 596568239#5 23520783#0 23520783#1 23520565"/>
    </vehicle>
    <vehicle id="bike11" type="bike_bicycle" depart="52.39" departLane="best">
        <route edges="23521917#2 23521917#3 23521917#5 -23540252 23519706#0 23519706#1 23519706#2 23519706#3 23519706#4 23519706#5 -23520554 -23519563#0 -23519463 -23518788#11 23519667#0 23519667#1 23519632 -23519972#5 -23519972#4 23519717#4"/>
    </vehicle>
    <vehicle id="bike12" type="bike_bicycle" depart="57.15" departLane="best">
        <route edges="836685800#0 836685800#1 836685800#2 23520814#0 23520814#1 -23520814#1 -23520814#0 -836685800#2 -836685800#1 23522098#0 23522098#1"/>
    </vehicle>
    <vehicle id="bike13" type="bike_bicycle" depart="61.92" departLane="best">
        <route edges="23519159#2 23520410#0 23520410#1 23519854#3 23519854#4 23519854#5 23519854#6 -23520349#2 -23520349#0 600501527#0 -23520563#1 -23520563#0 -23519041#5 -421435711#1 -118670827 1134693557 -23518788#5 23519204#0 23519204#1 23519204#2 23519204#3 23519204#4 23519204#5 23519204#6 23519204#7"/>
    </vehicle>
    <vehicle id="bike14" type="bike_bicycle" depart="66.68" departLane="best">
        <route edges="23521920 23521086 -23521107#1 -23521107#0 272595409#3 272595409#4 272595409#5 272595409#6 272595409#7 721779874 793411605 763589722 721779676 763589723 252223484#0 252223486 252223483#0 252223483#1 23519688#2"/>
    </vehicle>
    <vehicle id="bike15" type="bike_bicycle" depart="71.44" departLane="best">
        <route edges="-23521401#10 -23521401#9 -23521401#8 -23521401#7 -23521401#6 -23521401#3 -23521401#2 -23521401#1 -23521401#0 -23540252 -23520880#2 -23520880#1 -23520692 -23520349#5 -23520349#4 -23520349#3 -23519854#6 -23519854#5 -23519854#4 -23519854#3 -23519854#2 -23519854#1 -23519854#0 836685805#2 836685805#3 836685805#4 836685800#0 836685800#1 836685800#2 23520814#0 23520814#1 23520967#0"/>
    </vehicle>
    <vehicle id="bike16" type="bike_bicycle" depart="76.20" departLane="best">
        <route edges="23518788#9 23518788#10 -23519173#2 -23519173#1 -23519173#0 -600501527#2 23519391#1 23520999#2 23519061#0 23519061#1 23519061#2 23519061#3 -23519706#0 23519339 -282035194 724187422#1 -23519131#1 -23519131#0 838919069#0 838919069#1 838919069#2 838919069#3 23521063#0 23521063#1 838886529"/>
    </vehicle>
    <vehicle id="bike17" type="bike_bicycle" depart="80.97" departLane="best">
        <route edges="252221727#2 252221727#3 721779678 721779676 763589723 252223484#0 252223484#1 252223484#2 252223485 -272595409#7 -272595409#6 -272595409#5 23518788#0 23518788#1 23518788#2 23518788#4 23518788#5 23518788#6 23518788#7 23518788#8 23518788#9 -23519377 -23519041#2 23519173#2"/>
    </vehicle>
    <vehicle id="bike18" type="bike_bicycle" depart="85.73" departLane="best">
        <route edges="23521743#0 23521743#1 23521743#2 23520067 -252223483#6 -252223483#5 -252223483#4 -252223483#3 -252223483#2 -252223483#1 -23519724#0 23519724#0 23519724#1"/>
    </vehicle>
    <vehicle id="bike19" type="bike_bicycle" depart="90.49" departLane="best">
        <route edges="-23522098#1 -23522098#0 836685800#1 836685800#2 23520814#0 23520814#1 836685801#0 291263584#1 291263584#2 291263584#3 -23519446#0"/>
    </vehicle>
    <vehicle id="bike20" type="bike_bicycle" depart="95.25" departLane="best" departSpeed="max">
        <route edges="23520134#0 -376034362 23520448#1 23520448#2 23520448#3 23520448#4 -836685805#4 23518802#0 -23518926#0"/>
    </vehicle>
    <vehicle id="bike21" type="bike_bicycle" depart="100.02" departLane="best">
        <route edges="-23520535#0 -23520999#3 23519061#0 23519061#1 23519061#2 23519061#3 -23519706#0 23519339 23521401#0 23521401#1 23521401#2 23521401#3 23521401#6 23521401#7 23521401#8"/>
    </vehicle>
    <vehicle id="bike22" type="bike_bicycle" depart="104.78" departLane="best">
        <route edges="-23519061#1 -23519061#0 -23520999#2 -23519391#1 600501527#2 23519173#0 23519173#1 23519173#2 23519667#0 23519667#1 252223483#4 -23519521 23519717#0 23519527 23520515 23521737#0 -23520714"/>
    </vehicle>
    <vehicle id="bike23" type="bike_bicycle" depart="109.54" departLane="best">
        <route edges="-23519204#3 -23519204#2 -23519204#1 -23519204#0 23518788#5 -1134693557 -20300056#2 -20300056#1 421435711#0 421435711#1 23519041#5 23520563#0 23520563#1 -600501527#0 -23522098#4 23522103 -23521332#2"/>
    </vehicle>
    <vehicle id="bike24" type="bike_bicycle" depart="114.31" departLane="best">
        <route edges="23519563#1 601444719#1 23520863 -23518788#11 -23518788#10 -23518788#9 -23518788#8 -23518788#7 -23518788#6 -23518788#5 -23518788#4 -23518788#2 -23518788#1 -23518788#0 -272595409#4 -272595409#3 -272595409#2"/>
    </vehicle>
    <vehicle id="bike25" type="bike_bicycle" depart="119.07" departLane="best">
        <route edges="-23540252 -23520880#2 -23520880#1 -23520692 -23520349#5 -23520349#4 -23520349#3 -23519854#6 -23519854#5 -23519854#4 -23519854#3 -23520410#1 -23520410#0"/>
    </vehicle>
    <vehicle id="bike26" type="bike_bicycle" depart="123.83" departLane="best">
        <route edges="-23520999#2 -23519391#1 600501527#2 23519173#0 23519173#1 23519173#2 23519667#0 23519667#1 23519632 23519660#0 23519660#1 23519740 23519775 23519500#0 23520658#0 600601577"/>
    </vehicle>
    <vehicle id="bike27" type="bike_bicycle" depart="128.59" departLane="best">
        <route edges="-23519688#1 -23519688#0 23518788#4 23518788#5 23518788#6 23518788#7 23518788#8 23518788#9 23518788#10 -23519173#2 -23519041#1 -23519041#0 23519229#2 -23519706#4"/>
    </vehicle>
    <vehicle id="bike28" type="bike_bicycle" depart="133.36" departLane="best">
        <route edges="23519854#1 23519854#2 23519854#3 23519854#4 23519854#5 23519854#6 23520349#3 23520349#4 23520349#5 23520692 23520880#1 23520880#2 23519339 -282035194 -724187422#0 23520886#0 23520886#1 23520886#2 23520886#3 23520886#4 23520886#5"/>
    </vehicle>
    <vehicle id="bike29" type="bike_bicycle" depart="138.12" departLane="best">
        <route edges="23519756 600537837#1 -23520967#2 -23520967#1 -23520967#0 -23520814#1 -23520814#0 -836685800#2 -836685800#1 -836685800#0 -836685805#4 -836685805#3 -836685805#2 -836685805#1 -23519483#4 -23519483#3 -23519483#1 -23519483#0 -23540254 -23519248 838916319#0 838916319#1 23520170 596568243 -596568238#0"/>
    </vehicle>
    <vehicle id="bike30" type="bike_bicycle" depart="142.88" departLane="best">
        <route edges="1053485826#0 1053485826#1 596568240#0 596568240#1 596568242 596568229 724187423 -838919069#3 -838919069#2 838919378 -936923544#1 181255488 23521917#5 -23540252 23519706#0 23519706#1 -23518959#4 23519479#0 -23519822 23519917"/>
    </vehicle>
    <vehicle id="bike31" type="bike_bicycle" depart="147.64" departLane="best">
        <route edges="-23518974#0 23519061#1 23519061#2 23519061#3 -23519706#0 23519339 -282035194 -724187422#0 23521823#0 -23521012 -23520886#2 -23519508 23518777#2 23520428"/>
    </vehicle>
    <vehicle id="bike32" type="bike_bicycle" depart="152.41" departLane="best">
        <route edges="23521917#0 23521917#1 23521917#2 23521917#3 23521917#5 23521401#0 23521401#1 23521401#2"/>
    </vehicle>
    <vehicle id="bike33" type="bike_bicycle" depart="157.17" departLane="best">
        <route edges="-23520535#1 -23520535#0 23520999#4 -23520349#0 600501527#0 -23520563#1 -23520563#0 -23519041#5 -421435711#1 -118670827 1134693557 -23518788#5 -23518788#4"/>
    </vehicle>
    <vehicle id="bike34" type="bike_bicycle" depart="161.93" departLane="best" departSpeed="max">
        <route edges="-23521611 -23521708 -23520967#3 -23520967#2 -23520967#1 -23520967#0 -23520814#1 -23520814#0 -836685800#2 -836685800#1 -836685800#0 -836685805#4 -836685805#3 -836685805#2 -836685805#1 23519159#0 23519159#1 23519159#2 -23521181"/>
    </vehicle>
    <vehicle id="bike35" type="bike_bicycle" depart="166.70" departLane="best">
        <route edges="23520349#4 23520349#5 23520692 23520880#1 23520880#2 23519339 -282035194 -724187422#0 23521823#0 -23521012 -23520886#2 -23519508 23518777#2 23518777#3 23518777#4 23520975#0 600619639"/>
    </vehicle>
    <vehicle id="bike36" type="bike_bicycle" depart="171.46" departLane="best">
        <route edges="252221727#3 721779678 721779676 763589723 252223484#0 252223486 252223483#0 252223483#1 23519688#2 23519688#3 23521287#1 -23521904#4 -23521904#3"/>
    </vehicle>
    <vehicle id="bike37" type="bike_bicycle" depart="176.22" departLane="best">
        <route edges="-23519706#5 -23519706#4 -23519706#3 -23519706#2 -23519706#1 -23519706#0 23519339 -282035194 724187422#1 -23519131#1 -23519131#0 838919069#0 838919069#1 838919069#2 838919069#3 23521063#0 23521063#1 838886529 23520512 -600552806"/>
    </vehicle>
    <vehicle id="bike38" type="bike_bicycle" depart="180.98" departLane="best">
        <route edges="596568239#5 23518846#0 23518846#1 23519248 23518904 23519483#0 23519483#1 23519483#3 23519483#4 23520484#0 23520484#1 23520484#2 272595407#0"/>
    </vehicle>
    <vehicle id="bike39" type="bike_bicycle" depart="185.75" departLane="best">
        <route edges="-23520999#0 -23519024#3 -23519257 -600501527#2 -600501527#1 -600501527#0 -23522098#4 -23522098#3 -23522098#2 -23522098#1 -23522098#0 836685800#1 836685800#2 23520814#0 23520814#1 23520967#0 23520967#1"/>
    </vehicle>
    <vehicle id="bike40" type="bike_bicycle" depart="190.51" departLane="best">
        <route edges="23518978#2 -23518959#2 -23518959#1 -23518959#0 23520999#1 23520999#2 23520999#3 23520999#4 -23520349#0 -23522098#4 -23522098#3 -23522098#2 -23522098#1 -23522098#0 836685800#1 836685800#2 272595409#1 272595409#2 23521107#0"/>
    </vehicle>
    <vehicle id="bike41" type="bike_bicycle" depart="195.27" departLane="best">
        <route edges="23519131#1 936923544#0 181255488 23521917#5 -23540252 23519706#0 23519706#1 23519706#2 23519706#3 599998850"/>
    </vehicle>
    <vehicle id="bike42" type="bike_bicycle" depart="200.03" departLane="best">
        <route edges="-282035194 724187422#1 936923544#0 936923544#1 936923544#2 936923544#3 596568243 596568239#1 596568239#2 23519164 23519248 23518904 23519483#0 23519483#1 23519483#3 23519483#4 23520484#0 23520484#1 23520484#2"/>
    </vehicle>
    <vehicle id="bike43" type="bike_bicycle" depart="204.80" departLane="best" departSpeed="max">
        <route edges="942162016 -272595409#6 -272595409#5 -272595409#4 -272595409#3 -272595409#2 -272595409#1 -836685800#2 -836685800#1 23522098#0 23522098#1 23522098#2 23522098#3 23522098#4 600501527#0 600501527#1 23519391#1 23519391#2 23518974#1 23518974#2"/>
    </vehicle>
    <vehicle id="bike44" type="bike_bicycle" depart="209.56" departLane="best">
        <route edges="-23519156#2 -23519156#1 -23519156#0 -23518777#4 -23518777#3 -23518777#2 -23518777#1 -23518777#0 -23520886#0 724187422#0 282035194 -23540252 -23520880#2 -23520880#1 -23520692 -23520349#5 -23520349#4 -23520349#3 -23519854#6 -23519854#5 -23519854#4 -23519854#3 -23519854#2 23519006#2 -23518926#2"/>
    </vehicle>
    <vehicle id="bike45" type="bike_bicycle" depart="214.32" departLane="best">
        <route edges="-23519229#1 -23519229#0 23518959#1 23518974#2 23519917 23520021 23519846"/>
    </vehicle>
    <vehicle id="bike46" type="bike_bicycle" depart="219.09" departLane="best">
        <route edges="23521172#1 -23522086#1 -23522086#0 -23521401#10 -23521401#9 -23521401#8 -23521401#7 -23521401#6 -23521401#3 -23521401#2 -23521401#1 -23521401#0 -282035194 724187422#1 -23519131#1 -23519131#0 838919069#0 838919069#1 838919069#2 838919068 -838886530#2"/>
    </vehicle>
    <vehicle id="bike47" type="bike_bicycle" depart="223.85" departLane="best">
        <route edges="-23519024#0 23520563#1 -600501527#0 23520349#0 23520349#2 -23519854#6 -23519854#5 -23519854#4 -23519854#3 -23520410#1 -23520410#0 -23519159#2 -600015262#0"/>
    </vehicle>
    <vehicle id="bike48" type="bike_bicycle" depart="228.61" departLane="best">
        <route edges="936923544#3 596568243 596568237#1 838916319#1 838916319#2 838916319#3 838916319#4 23521917#0 23521917#1 23521917#2 23521917#3 23521917#5 -23540252 23519706#0 -23519061#3 -23519061#2 -23519061#1 -23519061#0 -23520999#2 -23519391#1 -23519391#0 -23519024#0 -23520563#0 -23519041#5"/>
    </vehicle>
    <vehicle id="bike49" type="bike_bicycle" depart="233.37" departLane="best">
        <route edges="838886530#4 -23521049#0 838919378 -936923544#1 181255488 23521917#5 -23540252 23519706#0 23519706#1 23519706#2 23519706#3 23519706#4 23519706#5 -23520554 -23519563#0 -23519463 601444720 -601444719#1 -601444719#0 252223483#6"/>
    </vehicle>
    <vehicle id="bike50" type="bike_bicycle" depart="238.14" departLane="best">
        <route edges="202497034 -23520484#2 -23520484#1 -23520484#0 -23519483#4 -23519483#3 -23519483#1 23520880#0"/>
    </vehicle>
    <vehicle id="bike51" type="bike_bicycle" depart="242.90" departLane="best">
        <route edges="23519897 1053485826#0 1053485826#1 596568240#0 596568240#1 596568242 596568229 724187423 -838919069#3 -838919069#2 -838919069#1 838885129 23519103#0"/>
    </vehicle>
    <vehicle id="bike52" type="bike_bicycle" depart="247.66" departLane="best">
        <route edges="-23520999#2 -23519391#1 -23519391#0 -23519024#0 -23520563#0 -23519041#5 -421435711#1 -118670827 1134693557 -23518788#5 -23518788#4 -23518788#2 23521185#0 23521185#1"/>
    </vehicle>
    <vehicle id="bike53" type="bike_bicycle" depart="252.42" departLane="best">
        <route edges="-23519241 23519972#5 -23519632 -23519667#1 -23519667#0 -23519173#2 -23519173#1 -23519173#0 -600501527#2 23519391#1 23520999#2 23519061#0 23519061#1 23519061#2 23519061#3 -23519706#0 23519339 23521401#0 -902581873"/>
    </vehicle>
    <vehicle id="bike54" type="bike_bicycle" depart="257.19" departLane="best" departSpeed="max">
        <route edges="-600619639 23520975#1 -23519103#0 -838886530#5 -23521049#0 838919378 936923544#2 936923544#3 724187421 724187424#0"/>
    </vehicle>
    <vehicle id="bike55" type="bike_bicycle" depart="261.95" departLane="best">
        <route edges="-252221727#2 -252221727#1 23519446#0 23519446#1 -23520305 -23521107#1 -23521107#0"/>
    </vehicle>
    <vehicle id="bike56" type="bike_bicycle" depart="266.71" departLane="best">
        <route edges="-168706220#1 -23519156#2 -23519156#1 -23519156#0 -23518777#4 -23518777#3 -23518777#2 -23518777#1 -23518777#0 -23520886#0 724187422#0 282035194 -23540252 23519706#0 23519706#1 23519706#2 23519706#3 23519706#4 23519706#5 -23520554 -23519563#0 -23519463 -23518788#11 23519667#0 23519667#1 23519632 -23519972#5 -23519972#4"/>
    </vehicle>
    <vehicle id="bike57" type="bike_bicycle" depart="271.48" departLane="best">
        <route edges="596568239#3 -23519612 23518846#1 23519248 23518904 23519483#0 23519483#1 23519483#3 23519483#4 836685805#1 836685805#2 836685805#3 836685805#4 836685800#0 836685800#1 836685800#2 272595409#1"/>
    </vehicle>
    <vehicle id="bike58" type="bike_bicycle" depart="276.24" departLane="best">
        <route edges="-23521401#13 -23521401#12 -23521401#11 -23521401#10 -23521401#9 -23521401#8 -23521401#7 -23521401#6 -23521401#3 -23521401#2 -23521401#1 -23521401#0 -23540252 23519706#0 -23519061#3 -23519061#2 -23519061#1 -23519061#0 -23520999#2 -23519391#1 -23519391#0 -23519024#0 -23520563#0 -23519041#5 -421435711#1 -118670827 1134693557 -23518788#5 -23518788#4 -23518788#2 23521185#0 23519677 23519886#1"/>
    </vehicle>
    <vehicle id="bike59" type="bike_bicycle" depart="281.00" departLane="best">
        <route edges="23519248 23518904 23519483#0 23519483#1 -23519582#1 23519582#1 23519080 -23520349#5 -23520349#4 -23520349#3 -23520349#2 -23520349#0 600501527#0 600501527#1 600501527#2 23519173#0 23519173#1 23519173#2 23519667#0 23519667#1 23519632 23519660#0 23519660#1 -23519717#1"/>
    </vehicle>
    <vehicle id="bike60" type="bike_bicycle" depart="285.76" departLane="best">
        <route edges="-23520886#2 -23519508 23518777#2 23518777#3 23518777#4 23520975#0 23520975#1 23519103#1 23519103#2"/>
    </vehicle>
    <vehicle id="bike61" type="bike_bicycle" depart="290.53" departLane="best">
        <route edges="23521012 -23521823#0 724187422#0 724187422#1 936923544#0 936923544#1 936923544#2 936923544#3 596568243 596568239#1 596568239#2 596568239#3 23519055"/>
    </vehicle>
    <vehicle id="bike62" type="bike_bicycle" depart="295.29" departLane="best" departSpeed="max">
        <route edges="-1060925382 -252223483#12 -252223483#9 -252223483#8 -252223483#7 -252223483#6 -252223483#5 -252223483#4 -252223483#3 -23519204#1 23519204#1 23519204#2 23519204#3 -23521995"/>
    </vehicle>
    <vehicle id="bike65" type="bike_bicycle" depart="309.58" departLane="best" departSpeed="max">
        <route edges="-23521470 -23521401#12 -23521401#11 -23521401#10 -23521401#9 -23521401#8 -23521401#7 -23521401#6 -23521401#3 -23521401#2 -23521401#1 -23521401#0 -23540252 23519706#0 23519706#1 -23518959#4 -23518959#3 -23518978#2"/>
    </vehicle>
    <vehicle id="bike66" type="bike_bicycle" depart="314.34" departLane="best">
        <route edges="-252223483#1 -252223483#0 721779873"/>
    </vehicle>
    <vehicle id="bike67" type="bike_bicycle" depart="319.10" departLane="best" departSpeed="max">
        <route edges="-23519103#2 -23519103#1 -23519103#0 -838886530#5 -23521049#0 838919378 -936923544#1 181255488 23521917#5 -23540252 23519706#0 -23519061#3 -23519061#2 -23519061#1 -23519061#0 -23520999#2 -23519391#1 -23519391#0 -23519024#0 -23520563#0 -23519041#5 -421435711#1 -118670827 1134693557 23518788#6"/>
    </vehicle>
    <vehicle id="bike68" type="bike_bicycle" depart="323.87" departLane="best" departSpeed="max">
        <route edges="-23519025 -23519218 -838919067#1 -838919067#0 -838919068 -838919069#2 838919378 -936923544#1 181255488 23521917#5 -23540252 23519706#0 -23519061#3 -23519061#2 -23519061#1 -23519061#0 -23520999#2 -23519391#1 -23519391#0 -23519024#0 -23520563#0 -23519041#5 -421435711#1 -118670827 1134693557 -23518788#5 -23518788#4 23519688#0 23519688#1 23519688#2 23519688#3 23521287#1"/>
    </vehicle>
    <vehicle id="bike69" type="bike_bicycle" depart="328.63" departLane="best" departSpeed="max">
        <route edges="23520905 23518846#0 23518846#1 838916319#0 838916319#1 838916319#2 838916319#3 838916319#4 23521917#0 23521917#1 23521917#2 23521917#3 23521917#5 -23540252 23519706#0 23519706#1 23519706#2 23519706#3 23519706#4 23519706#5 -23520554 -23519563#0"/>
    </vehicle>
    <vehicle id="bike70" type="bike_bicycle" depart="333.39" departLane="best">
        <route edges="-838885129 838919069#1 838919378 -936923544#1 181255488 23521917#5 -23540252 23519706#0 -23519061#3 -23519061#2 -23519061#1 -23519061#0 -23520999#2 -23519391#1 600501527#2 23519173#0"/>
    </vehicle>
    <vehicle id="bike71" type="bike_bicycle" depart="338.15" departLane="best">
        <route edges="-23520999#0 -23519024#3 -23519257 -600501527#2 -600501527#1 -600501527#0 -23522098#4 -23522098#3 -23522098#2 -23522098#1 -23522098#0 836685800#1 836685800#2 272595409#1 272595409#2 272595409#3"/>
    </vehicle>
    <vehicle id="bike72" type="bike_bicycle" depart="342.92" departLane="best" departSpeed="max">
        <route edges="-600098316 838916319#4 23519407#0 936923544#3 596568243 596568239#1 596568239#2 23519164 23519248 23518904 23519483#0 23519483#1 23519483#3 23519483#4 836685805#1 836685805#2 836685805#3 836685805#4 -23520448#4 -23520448#3 -23520448#2 -23520448#1 -23520448#0"/>
    </vehicle>
    <vehicle id="bike73" type="bike_bicycle" depart="347.68" departLane="best">
        <route edges="23518802#3 -23522098#2 -23522098#1 -23522098#0 836685800#1 836685800#2 23520814#0 23520814#1 23520967#0"/>
    </vehicle>
    <vehicle id="bike74" type="bike_bicycle" depart="352.44" departLane="best">
        <route edges="23520134#1 23520134#2 836685802#0 836685802#1 -23520814#1 -23520814#0 -23519691 23520423 23519688#0 23519688#1 23519688#2 23519688#3 23521287#1 -23521904#4 -23521904#3 -23521904#2 -23521904#1 -23521904#0"/>
    </vehicle>
    <vehicle id="bike75" type="bike_bicycle" depart="357.21" departLane="best">
        <route edges="936923544#2 936923544#3 596568243 596568239#1 596568239#2 23519164 23519248 23518904 23519483#0 23519483#1 -23519582#1 -23520038"/>
    </vehicle>
    <vehicle id="bike76" type="bike_bicycle" depart="361.97" departLane="best" departSpeed="max">
        <route edges="-600485241 -600483610#1 -600483610#0 -23519500#0 -23519775 -23519740 -23519660#1 -23519660#0 -23519632 -23519667#1 -23519667#0 -23519173#2 -23519173#1 23519024#2"/>
    </vehicle>
    <vehicle id="bike77" type="bike_bicycle" depart="366.73" departLane="best">
        <route edges="-23519446#1 -291263584#3 -291263584#2 -291263584#1 -836685801#0 -23520814#1 -23520814#0 -836685800#2 -836685800#1 23522098#0 23522098#1 23522098#2 23522098#3 23522098#4 600501527#0 -23520563#1 -23520563#0"/>
    </vehicle>
    <vehicle id="bike78" type="bike_bicycle" depart="371.49" departLane="best">
        <route edges="23521904#4 23521995 -23519204#3 -23519717#4 -23519717#3 -23519717#2 -23519717#1 -23519717#0 23519521"/>
    </vehicle>
    <vehicle id="bike79" type="bike_bicycle" depart="376.26" departLane="best">
        <route edges="-23520563#0 -23519041#5 -23519041#4 23519259 23518788#9 23518788#10 23519667#0 23519667#1 252223483#4 -23519521 23519717#0 23519527 23520515"/>
    </vehicle>
    <vehicle id="bike80" type="bike_bicycle" depart="381.02" departLane="best" departSpeed="max">
        <route edges="-23519032 -23519024#4 23520999#0 23520999#1 23520999#2 23520999#3 23520999#4 23520349#2 -23519854#6 -23519854#5 -23519854#4 -23519854#3"/>
    </vehicle>
    <vehicle id="bike81" type="bike_bicycle" depart="385.78" departLane="best">
        <route edges="-23520535#1 -23520619 -23520349#3 -23519854#6 -23519854#5 -23519854#4 -23519854#3 -23520410#1 600015258"/>
    </vehicle>
    <vehicle id="bike82" type="bike_bicycle" depart="390.54" departLane="best">
        <route edges="23522088 -23522052#1 -23522052#0 23519521 -252223483#4 -23519667#1 -23519667#0 -23518788#10 -23518788#9 -23519259 23519041#4"/>
    </vehicle>
    <vehicle id="bike83" type="bike_bicycle" depart="395.31" departLane="best">
        <route edges="-23520658#0 -23519500#0 -23519775 -23519740 -23519660#1 -23519660#0 -23519632 -23519667#1 -23519667#0 -23519173#2 -23519173#1 -23519173#0 -600501527#2 23519391#1 23520999#2 23519061#0 23519061#1 23519061#2 23519061#3 -23519706#0 23519339 23521401#0 23521401#1 23521401#2 23521401#3 23520174"/>
    </vehicle>
    <vehicle id="bike84" type="bike_bicycle" depart="400.07" departLane="best">
        <route edges="-23520374#0 23519521 -252223483#4 -23519667#1 -23519667#0 -23519173#2 -23519173#1 -23519173#0 -600501527#2 -600501527#1 -600501527#0 -23522098#4 -23522098#3 -23518802#3 -23518802#2 -23518802#1 -23518802#0 836685805#4 -23520448#4 -23520448#3 -23519593"/>
    </vehicle>
    <vehicle id="bike85" type="bike_bicycle" depart="404.83" departLane="best" departSpeed="max">
        <route edges="600552806 1017413434 23520007 1053485826#0 1053485826#1 596568240#0 596568240#1 596568242 596568229 724187423 -838919069#3 -838919069#2 838919378 -936923544#1 181255488 23521917#5 -23540252"/>
    </vehicle>
    <vehicle id="bike86" type="bike_bicycle" depart="409.60" departLane="best">
        <route edges="-836685805#3 -836685805#2 23519854#0 23519854#1 23519854#2 23519854#3 23519854#4 23519854#5 23519854#6 23520349#3 23520349#4 23520349#5 23520692 23520880#1 23520880#2 23519339 -282035194 -724187422#0 23521823#0 -23521012 -23520886#2 -23519508 23518777#2 23518777#3 23518777#4 23519156#0 23519156#1 23521668 23521520"/>
    </vehicle>
    <vehicle id="bike87" type="bike_bicycle" depart="414.36" departLane="best">
        <route edges="-23521401#10 -23521401#9 -23521401#8 -23521401#7 -23521401#6 -23521401#3 -23521401#2 -23521401#1 -23521401#0 -23540252 -23520880#2 -23520880#1 -23520692 -23520349#5 -23520349#4 -23520349#3 -23519854#6 -23519854#5 -23519854#4 -23519854#3 -23519854#2 -23519854#1 -23519854#0 836685805#2 836685805#3 836685805#4 -23520448#4 -23520448#3 -23520448#2 -23520448#1 376034362 -23520134#0"/>
    </vehicle>
    <vehicle id="bike88" type="bike_bicycle" depart="419.12" departLane="best">
        <route edges="-23519173#2 -23519173#1 -23519173#0 -600501527#2 23519391#1 23520999#2 23519061#0 23519061#1 23519061#2 23519061#3 -23519706#0 23519339 -23521917#5 -23521917#3 -23521917#2 -838919379#0"/>