<?xml version="1.0" encoding="UTF-8"?>

<!-- generated on 2024-08-23 21:13:43.725168 by randomTrips.py v1_18_0+0000-03ecfdea036
<configuration>
    <net-file value="osm.net.xml.gz"/>
    <output-trip-file value="osm.bicycle.trips.xml"/>
    <route-file value="osm.bicycle.rou.xml"/>
    <prefix value="bike"/>
    <trip-attributes value="departLane=&quot;best&quot;"/>
    <fringe-start-attributes value="departSpeed=&quot;max&quot;"/>
    <vehicle-class value="bicycle"/>
    <fringe-factor value="2"/>
    <vclass value="bicycle"/>
    <via-edge-types value="highway.motorway,highway.motorway_link,highway.trunk_link,highway.primary_link,highway.secondary_link,highway.tertiary_link"/>
    <max-distance value="8000.0"/>
    <remove-loops value="True"/>
    <validate value="True"/>
    <insertion-density value="6.0"/>
</configuration>
-->

<!-- generated on 2024-08-23 21:13:43 by Eclipse SUMO duarouter Version 1.18.0
<configuration xmlns:xsi="http://www.w3.org/2001/XMLSchema-instance" xsi:noNamespaceSchemaLocation="http://sumo.dlr.de/xsd/duarouterConfiguration.xsd">

    <input>
        <net-file value="osm.net.xml.gz"/>
        <route-files value="osm.bicycle.trips.xml"/>
    </input>

    <output>
        <output-file value="osm.bicycle.trips.xml.tmp"/>
        <alternatives-output value="NUL"/>
        <write-trips value="true"/>
    </output>

    <processing>
        <remove-loops value="true"/>
    </processing>

    <time>
        <begin value="0.0"/>
        <end value="3600.0"/>
    </time>

    <report>
        <no-warnings value="true"/>
        <ignore-errors value="true"/>
        <no-step-log value="true"/>
    </report>

</configuration>
-->

<routes xmlns:xsi="http://www.w3.org/2001/XMLSchema-instance" xsi:noNamespaceSchemaLocation="http://sumo.dlr.de/xsd/routes_file.xsd">
    <vType id="bike_bicycle" vClass="bicycle"/>
    <trip id="bike0" type="bike_bicycle" depart="0.00" departLane="best" from="-23519508" to="23518777#2"/>
    <trip id="bike1" type="bike_bicycle" depart="4.76" departLane="best" from="-23521101#0" to="-23520554"/>
    <trip id="bike2" type="bike_bicycle" depart="9.53" departLane="best" from="23520512" to="23520354#0"/>
    <trip id="bike3" type="bike_bicycle" depart="14.29" departLane="best" from="-272595409#1" to="23519159#2"/>
    <trip id="bike4" type="bike_bicycle" depart="19.05" departLane="best" departSpeed="max" from="-600074311" to="-23518788#11"/>
    <trip id="bike5" type="bike_bicycle" depart="23.81" departLane="best" from="23520410#1" to="23518959#2"/>
    <trip id="bike6" type="bike_bicycle" depart="28.58" departLane="best" from="-23518777#0" to="-23520342"/>
    <trip id="bike7" type="bike_bicycle" depart="33.34" departLane="best" from="-23519688#3" to="23519159#0"/>
    <trip id="bike8" type="bike_bicycle" depart="38.10" departLane="best" from="23520448#2" to="23519527"/>
    <trip id="bike9" type="bike_bicycle" depart="42.86" departLane="best" from="-23521401#12" to="-188701944#0"/>
    <trip id="bike10" type="bike_bicycle" depart="47.63" departLane="best" from="-23521401#0" to="23520565"/>
    <trip id="bike11" type="bike_bicycle" depart="52.39" departLane="best" from="23521917#2" to="23519717#4"/>
    <trip id="bike12" type="bike_bicycle" depart="57.15" departLane="best" from="836685800#0" to="23522098#1"/>
    <trip id="bike13" type="bike_bicycle" depart="61.92" departLane="best" from="23519159#2" to="23519204#7"/>
    <trip id="bike14" type="bike_bicycle" depart="66.68" departLane="best" from="23521920" to="23519688#2"/>
    <trip id="bike15" type="bike_bicycle" depart="71.44" departLane="best" from="-23521401#10" to="23520967#0"/>
    <trip id="bike16" type="bike_bicycle" depart="76.20" departLane="best" from="23518788#9" to="838886529"/>
    <trip id="bike17" type="bike_bicycle" depart="80.97" departLane="best" from="252221727#2" to="23519173#2"/>
    <trip id="bike18" type="bike_bicycle" depart="85.73" departLane="best" from="23521743#0" to="23519724#1"/>
    <trip id="bike19" type="bike_bicycle" depart="90.49" departLane="best" from="-23522098#1" to="-23519446#0"/>
    <trip id="bike20" type="bike_bicycle" depart="95.25" departLane="best" departSpeed="max" from="23520134#0" to="-23518926#0"/>
    <trip id="bike21" type="bike_bicycle" depart="100.02" departLane="best" from="-23520535#0" to="23521401#8"/>
    <trip id="bike22" type="bike_bicycle" depart="104.78" departLane="best" from="-23519061#1" to="-23520714"/>
    <trip id="bike23" type="bike_bicycle" depart="109.54" departLane="best" from="-23519204#3" to="-23521332#2"/>
    <trip id="bike24" type="bike_bicycle" depart="114.31" departLane="best" from="23519563#1" to="-272595409#2"/>
    <trip id="bike25" type="bike_bicycle" depart="119.07" departLane="best" from="-23540252" to="-23520410#0"/>
    <trip id="bike26" type="bike_bicycle" depart="123.83" departLane="best" from="-23520999#2" to="600601577"/>
    <trip id="bike27" type="bike_bicycle" depart="128.59" departLane="best" from="-23519688#1" to="-23519706#4"/>
    <trip id="bike28" type="bike_bicycle" depart="133.36" departLane="best" from="23519854#1" to="23520886#5"/>
    <trip id="bike29" type="bike_bicycle" depart="138.12" departLane="best" from="23519756" to="-596568238#0"/>
    <trip id="bike30" type="bike_bicycle" depart="142.88" departLane="best" from="1053485826#0" to="23519917"/>
    <trip id="bike31" type="bike_bicycle" depart="147.64" departLane="best" from="-23518974#0" to="23520428"/>
    <trip id="bike32" type="bike_bicycle" depart="152.41" departLane="best" from="23521917#0" to="23521401#2"/>
    <trip id="bike33" type="bike_bicycle" depart="157.17" departLane="best" from="-23520535#1" to="-23518788#4"/>
    <trip id="bike34" type="bike_bicycle" depart="161.93" departLane="best" departSpeed="max" from="-23521611" to="-23521181"/>
    <trip id="bike35" type="bike_bicycle" depart="166.70" departLane="best" from="23520349#4" to="600619639"/>
    <trip id="bike36" type="bike_bicycle" depart="171.46" departLane="best" from="252221727#3" to="-23521904#3"/>
    <trip id="bike37" type="bike_bicycle" depart="176.22" departLane="best" from="-23519706#5" to="-600552806"/>
    <trip id="bike38" type="bike_bicycle" depart="180.98" departLane="best" from="596568239#5" to="272595407#0"/>
    <trip id="bike39" type="bike_bicycle" depart="185.75" departLane="best" from="-23520999#0" to="23520967#1"/>
    <trip id="bike40" type="bike_bicycle" depart="190.51" departLane="best" from="23518978#2" to="23521107#0"/>
    <trip id="bike41" type="bike_bicycle" depart="195.27" departLane="best" from="23519131#1" to="599998850"/>
    <trip id="bike42" type="bike_bicycle" depart="200.03" departLane="best" from="-282035194" to="23520484#2"/>
    <trip id="bike43" type="bike_bicycle" depart="204.80" departLane="best" departSpeed="max" from="942162016" to="23518974#2"/>
    <trip id="bike44" type="bike_bicycle" depart="209.56" departLane="best" from="-23519156#2" to="-23518926#2"/>
    <trip id="bike45" type="bike_bicycle" depart="214.32" departLane="best" from="-23519229#1" to="23519846"/>
    <trip id="bike46" type="bike_bicycle" depart="219.09" departLane="best" from="23521172#1" to="-838886530#2"/>
    <trip id="bike47" type="bike_bicycle" depart="223.85" departLane="best" from="-23519024#0" to="-600015262#0"/>
    <trip id="bike48" type="bike_bicycle" depart="228.61" departLane="best" from="936923544#3" to="-23519041#5"/>
    <trip id="bike49" type="bike_bicycle" depart="233.37" departLane="best" from="838886530#4" to="252223483#6"/>
    <trip id="bike50" type="bike_bicycle" depart="238.14" departLane="best" from="202497034" to="23520880#0"/>
    <trip id="bike51" type="bike_bicycle" depart="242.90" departLane="best" from="23519897" to="23519103#0"/>
    <trip id="bike52" type="bike_bicycle" depart="247.66" departLane="best" from="-23520999#2" to="23521185#1"/>
    <trip id="bike53" type="bike_bicycle" depart="252.42" departLane="best" from="-23519241" to="-902581873"/>
    <trip id="bike54" type="bike_bicycle" depart="257.19" departLane="best" departSpeed="max" from="-600619639" to="724187424#0"/>
    <trip id="bike55" type="bike_bicycle" depart="261.95" departLane="best" from="-252221727#2" to="-23521107#0"/>
    <trip id="bike56" type="bike_bicycle" depart="266.71" departLane="best" from="-168706220#1" to="-23519972#4"/>
    <trip id="bike57" type="bike_bicycle" depart="271.48" departLane="best" from="596568239#3" to="272595409#1"/>
    <trip id="bike58" type="bike_bicycle" depart="276.24" departLane="best" from="-23521401#13" to="23519886#1"/>
    <trip id="bike59" type="bike_bicycle" depart="281.00" departLane="best" from="23519248" to="-23519717#1"/>
    <trip id="bike60" type="bike_bicycle" depart="285.76" departLane="best" from="-23520886#2" to="23519103#2"/>
    <trip id="bike61" type="bike_bicycle" depart="290.53" departLane="best" from="23521012" to="23519055"/>
    <trip id="bike62" type="bike_bicycle" depart="295.29" departLane="best" departSpeed="max" from="-1060925382" to="-23521995"/>
    <trip id="bike65" type="bike_bicycle" depart="309.58" departLane="best" departSpeed="max" from="-23521470" to="-23518978#2"/>
    <trip id="bike66" type="bike_bicycle" depart="314.34" departLane="best" from="-252223483#1" to="721779873"/>
    <trip id="bike67" type="bike_bicycle" depart="319.10" departLane="best" departSpeed="max" from="-23519103#2" to="23518788#6"/>
    <trip id="bike68" type="bike_bicycle" depart="323.87" departLane="best" departSpeed="max" from="-23519025" to="23521287#1"/>
    <trip id="bike69" type="bike_bicycle" depart="328.63" departLane="best" departSpeed="max" from="23520905" to="-23519563#0"/>
    <trip id="bike70" type="bike_bicycle" depart="333.39" departLane="best" from="-838885129" to="23519173#0"/>
    <trip id="bike71" type="bike_bicycle" depart="338.15" departLane="best" from="-23520999#0" to="272595409#3"/>
    <trip id="bike72" type="bike_bicycle" depart="342.92" departLane="best" departSpeed="max" from="-600098316" to="-23520448#0"/>
    <trip id="bike73" type="bike_bicycle" depart="347.68" departLane="best" from="23518802#3" to="23520967#0"/>
    <trip id="bike74" type="bike_bicycle" depart="352.44" departLane="best" from="23520134#1" to="-23521904#0"/>
    <trip id="bike75" type="bike_bicycle" depart="357.21" departLane="best" from="936923544#2" to="-23520038"/>
    <trip id="bike76" type="bike_bicycle" depart="361.97" departLane="best" departSpeed="max" from="-600485241" to="23519024#2"/>
    <trip id="bike77" type="bike_bicycle" depart="366.73" departLane="best" from="-23519446#1" to="-23520563#0"/>
    <trip id="bike78" type="bike_bicycle" depart="371.49" departLane="best" from="23521904#4" to="23519521"/>
    <trip id="bike79" type="bike_bicycle" depart="376.26" departLane="best" from="-23520563#0" to="23520515"/>
    <trip id="bike80" type="bike_bicycle" depart="381.02" departLane="best" departSpeed="max" from="-23519032" to="-23519854#3"/>
    <trip id="bike81" type="bike_bicycle" depart="385.78" departLane="best" from="-23520535#1" to="600015258"/>
    <trip id="bike82" type="bike_bicycle" depart="390.54" departLane="best" from="23522088" to="23519041#4"/>
    <trip id="bike83" type="bike_bicycle" depart="395.31" departLane="best" from="-23520658#0" to="23520174"/>
    <trip id="bike84" type="bike_bicycle" depart="400.07" departLane="best" from="-23520374#0" to="-23519593"/>
    <trip id="bike85" type="bike_bicycle" depart="404.83" departLane="best" departSpeed="max" from="600552806" to="-23540252"/>
    <trip id="bike86" type="bike_bicycle" depart="409.60" departLane="best" from="-836685805#3" to="23521520"/>
    <trip id="bike87" type="bike_bicycle" depart="414.36" departLane="best" from="-23521401#10" to="-23520134#0"/>
    <trip id="bike88" type="bike_bicycle" depart="419.12" departLane="best" from="-23519173#2" to="-838919379#0"/>
    <trip id="bike90" type="bike_bicycle" depart="428.65" departLane="best" departSpeed="max" from="23520448#0" to="23520349#3"/>
    <trip id="bike91" type="bike_bicycle" depart="433.41" departLane="best" from="838919378" to="-23519211"/>
    <trip id="bike92" type="bike_bicycle" depart="438.17" departLane="best" from="-291263584#3" to="23522098#4"/>
    <trip id="bike93" type="bike_bicycle" depart="442.93" departLane="best" from="-23522098#1" to="23520967#3"/>
    <trip id="bike94" type="bike_bicycle" depart="447.70" departLane="best" from="-23520050" to="1060925382"/>
    <trip id="bike95" type="bike_bicycle" depart="452.46" departLane="best" departSpeed="max" from="-600074311" to="-23521332#3"/>
    <trip id="bike96" type="bike_bicycle" depart="457.22" departLane="best" departSpeed="max" from="-23520868" to="600483610#0"/>
    <trip id="bike97" type="bike_bicycle" depart="461.99" departLane="best" from="600537837#1" to="252223483#7"/>
    <trip id="bike98" type="bike_bicycle" depart="466.75" departLane="best" from="23518926#2" to="-23518959#2"/>
    <trip id="bike99" type="bike_bicycle" depart="471.51" departLane="best" from="942212143" to="23522058"/>
    <trip id="bike100" type="bike_bicycle" depart="476.27" departLane="best" from="838886530#0" to="600485241"/>
    <trip id="bike101" type="bike_bicycle" depart="481.04" departLane="best" from="23521950" to="-23519854#3"/>
    <trip id="bike102" type="bike_bicycle" depart="485.80" departLane="best" from="-838919069#3" to="-23520448#1"/>
    <trip id="bike103" type="bike_bicycle" depart="490.56" departLane="best" from="-291263584#1" to="-23518978#2"/>
    <trip id="bike104" type="bike_bicycle" depart="495.32" departLane="best" from="252221727#3" to="838919068"/>
    <trip id="bike105" type="bike_bicycle" depart="500.09" departLane="best" from="-23520999#0" to="23521470"/>
    <trip id="bike106" type="bike_bicycle" depart="504.85" departLane="best" from="23521120" to="-838886530#4"/>
    <trip id="bike107" type="bike_bicycle" depart="509.61" departLane="best" from="23520448#4" to="936923544#0"/>
    <trip id="bike108" type="bike_bicycle" depart="514.38" departLane="best" from="23518959#4" to="601444720"/>
    <trip id="bike109" type="bike_bicycle" depart="519.14" departLane="best" from="-23519706#7" to="-23521683"/>
    <trip id="bike110" type="bike_bicycle" depart="523.90" departLane="best" from="838886530#0" to="-23519463"/>
    <trip id="bike111" type="bike_bicycle" depart="528.66" departLane="best" from="23518889#0" to="23521086"/>
    <trip id="bike112" type="bike_bicycle" depart="533.43" departLane="best" from="-23518974#2" to="23519483#3"/>
    <trip id="bike113" type="bike_bicycle" depart="538.19" departLane="best" from="181255489" to="-252221727#2"/>
    <trip id="bike114" type="bike_bicycle" depart="542.95" departLane="best" from="-23519717#1" to="836685800#0"/>
    <trip id="bike115" type="bike_bicycle" depart="547.71" departLane="best" from="-23519061#1" to="-23520067"/>
    <trip id="bike116" type="bike_bicycle" depart="552.48" departLane="best" from="-23519204#0" to="23520349#5"/>
    <trip id="bike117" type="bike_bicycle" depart="557.24" departLane="best" from="-23520619" to="-23519483#0"/>
    <trip id="bike118" type="bike_bicycle" depart="562.00" departLane="best" from="252223488" to="-23520967#0"/>
    <trip id="bike119" type="bike_bicycle" depart="566.77" departLane="best" from="23519204#0" to="23519724#2"/>
    <trip id="bike120" type="bike_bicycle" depart="571.53" departLane="best" departSpeed="max" from="-600015262#1" to="23519483#1"/>
    <trip id="bike121" type="bike_bicycle" depart="576.29" departLane="best" from="-23518777#1" to="600554931"/>
    <trip id="bike122" type="bike_bicycle" depart="581.05" departLane="best" departSpeed="max" from="-23520174" to="23520851"/>
    <trip id="bike123" type="bike_bicycle" depart="585.82" departLane="best" from="-23520658#1" to="-600552806"/>
    <trip id="bike124" type="bike_bicycle" depart="590.58" departLane="best" from="23519837#1" to="-23521696#2"/>
    <trip id="bike125" type="bike_bicycle" depart="595.34" departLane="best" from="-23521668" to="-601444719#0"/>
    <trip id="bike126" type="bike_bicycle" depart="600.10" departLane="best" from="23519041#0" to="193054993"/>
    <trip id="bike127" type="bike_bicycle" depart="604.87" departLane="best" from="942192617" to="936923544#1"/>
    <trip id="bike128" type="bike_bicycle" depart="609.63" departLane="best" from="-23519041#0" to="-23520448#1"/>
    <trip id="bike129" type="bike_bicycle" depart="614.39" departLane="best" from="-23520999#0" to="-600554930#2"/>
    <trip id="bike130" type="bike_bicycle" depart="619.16" departLane="best" from="252223483#3" to="291263584#2"/>
    <trip id="bike131" type="bike_bicycle" depart="623.92" departLane="best" from="-23522126" to="23519724#1"/>
    <trip id="bike132" type="bike_bicycle" depart="628.68" departLane="best" from="-23521823#0" to="23520644#1"/>
    <trip id="bike133" type="bike_bicycle" depart="633.44" departLane="best" from="-23519261" to="-838919069#1"/>
    <trip id="bike134" type="bike_bicycle" depart="638.21" departLane="best" from="23519706#3" to="-188701944#0"/>
    <trip id="bike136" type="bike_bicycle" depart="647.73" departLane="best" from="23519724#0" to="600619633"/>
    <trip id="bike137" type="bike_bicycle" depart="652.49" departLane="best" from="-23519563#1" to="-23519446#1"/>
    <trip id="bike138" type="bike_bicycle" depart="657.26" departLane="best" from="-23519206" to="-23519204#0"/>
    <trip id="bike139" type="bike_bicycle" depart="662.02" departLane="best" departSpeed="max" from="-23521049#2" to="23519706#0"/>
    <trip id="bike140" type="bike_bicycle" depart="666.78" departLane="best" from="23520349#5" to="-23520349#5"/>
    <trip id="bike141" type="bike_bicycle" depart="671.55" departLane="best" from="-23519563#0" to="23521107#1"/>
    <trip id="bike142" type="bike_bicycle" depart="676.31" departLane="best" from="-918137127#0" to="600015258"/>
    <trip id="bike143" type="bike_bicycle" depart="681.07" departLane="best" from="23521917#5" to="-23519204#2"/>
    <trip id="bike144" type="bike_bicycle" depart="685.83" departLane="best" departSpeed="max" from="-600098316" to="-23521332#1"/>
    <trip id="bike145" type="bike_bicycle" depart="690.60" departLane="best" from="118670827" to="23521401#11"/>
    <trip id="bike146" type="bike_bicycle" depart="695.36" departLane="best" departSpeed="max" from="23519582#0" to="23521101#1"/>
    <trip id="bike147" type="bike_bicycle" depart="700.12" departLane="best" from="23520563#1" to="23519173#2"/>
    <trip id="bike148" type="bike_bicycle" depart="704.88" departLane="best" departSpeed="max" from="-600129473" to="193054992"/>
    <trip id="bike149" type="bike_bicycle" depart="709.65" departLane="best" from="23519041#3" to="-421435711#1"/>
    <trip id="bike150" type="bike_bicycle" depart="714.41" departLane="best" departSpeed="max" from="30518288" to="23519159#1"/>
    <trip id="bike151" type="bike_bicycle" depart="719.17" departLane="best" from="-23521823#1" to="23519483#0"/>
    <trip id="bike152" type="bike_bicycle" depart="723.94" departLane="best" from="23519706#0" to="-23519563#0"/>
    <trip id="bike153" type="bike_bicycle" depart="728.70" departLane="best" departSpeed="max" from="-23521470" to="599998851"/>
    <trip id="bike154" type="bike_bicycle" depart="733.46" departLane="best" from="23521185#1" to="252223483#6"/>
    <trip id="bike155" type="bike_bicycle" depart="738.22" departLane="best" from="-291263584#0" to="-23520410#0"/>
    <trip id="bike156" type="bike_bicycle" depart="742.99" departLane="best" departSpeed="max" from="-23520868" to="-23519229#1"/>
    <trip id="bike157" type="bike_bicycle" depart="747.75" departLane="best" departSpeed="max" from="23521047" to="596568229"/>
    <trip id="bike158" type="bike_bicycle" depart="752.51" departLane="best" from="-596568238#0" to="23519740"/>
    <trip id="bike159" type="bike_bicycle" depart="757.27" departLane="best" from="-23519706#7" to="-600501527#1"/>
    <trip id="bike160" type="bike_bicycle" depart="762.04" departLane="best" from="23522098#4" to="838886530#2"/>
    <trip id="bike161" type="bike_bicycle" depart="766.80" departLane="best" from="-23521401#2" to="376034362"/>
    <trip id="bike163" type="bike_bicycle" depart="776.33" departLane="best" from="-23521823#1" to="600501527#2"/>
    <trip id="bike164" type="bike_bicycle" depart="781.09" departLane="best" from="-23521332#1" to="721779874"/>
    <trip id="bike165" type="bike_bicycle" depart="785.85" departLane="best" from="-23521401#2" to="-23521181"/>
    <trip id="bike166" type="bike_bicycle" depart="790.61" departLane="best" from="-23521107#0" to="-23519261"/>
    <trip id="bike167" type="bike_bicycle" depart="795.38" departLane="best" from="25055326#1" to="252223483#4"/>
    <trip id="bike168" type="bike_bicycle" depart="800.14" departLane="best" from="-23520448#4" to="23521917#2"/>
    <trip id="bike169" type="bike_bicycle" depart="804.90" departLane="best" from="-760083149#0" to="-23521743#2"/>
    <trip id="bike170" type="bike_bicycle" depart="809.66" departLane="best" from="23521185#1" to="-23520628"/>
    <trip id="bike171" type="bike_bicycle" depart="814.43" departLane="best" departSpeed="max" from="-224702392#4" to="-23520134#2"/>
    <trip id="bike173" type="bike_bicycle" depart="823.95" departLane="best" from="838885129" to="-23521356"/>
    <trip id="bike174" type="bike_bicycle" depart="828.72" departLane="best" from="23519632" to="-600554930#1"/>
    <trip id="bike175" type="bike_bicycle" depart="833.48" departLane="best" from="838919069#1" to="23519103#0"/>
    <trip id="bike176" type="bike_bicycle" depart="838.24" departLane="best" from="600554930#2" to="23519446#1"/>
    <trip id="bike177" type="bike_bicycle" depart="843.00" departLane="best" from="838886530#2" to="-23519972#4"/>
    <trip id="bike178" type="bike_bicycle" depart="847.77" departLane="best" from="836685805#1" to="23521172#0"/>
    <trip id="bike179" type="bike_bicycle" depart="852.53" departLane="best" from="-23519218" to="-902581873"/>
    <trip id="bike180" type="bike_bicycle" depart="857.29" departLane="best" departSpeed="max" from="23520448#0" to="-23521904#2"/>
    <trip id="bike181" type="bike_bicycle" depart="862.06" departLane="best" from="-23519229#1" to="23518978#1"/>
    <trip id="bike182" type="bike_bicycle" depart="866.82" departLane="best" from="-252223483#5" to="23519407#1"/>
    <trip id="bike183" type="bike_bicycle" depart="871.58" departLane="best" from="-23520886#2" to="23520783#0"/>
    <trip id="bike184" type="bike_bicycle" depart="876.34" departLane="best" departSpeed="max" from="-1060925382" to="600483610#2"/>
    <trip id="bike185" type="bike_bicycle" depart="881.11" departLane="best" from="23518802#2" to="23520868"/>
    <trip id="bike186" type="bike_bicycle" depart="885.87" departLane="best" from="23520615" to="23520305"/>
    <trip id="bike187" type="bike_bicycle" depart="890.63" departLane="best" from="23522098#1" to="23519041#3"/>
    <trip id="bike188" type="bike_bicycle" depart="895.39" departLane="best" from="23519724#1" to="-23522052#1"/>
    <trip id="bike189" type="bike_bicycle" depart="900.16" departLane="best" from="-23521598" to="-243777837#3"/>
    <trip id="bike190" type="bike_bicycle" depart="904.92" departLane="best" from="-23520354#1" to="-23521696#2"/>
    <trip id="bike191" type="bike_bicycle" depart="909.68" departLane="best" from="-23521512" to="760083149#0"/>
    <trip id="bike192" type="bike_bicycle" depart="914.45" departLane="best" from="-291263584#3" to="23521668"/>
    <trip id="bike193" type="bike_bicycle" depart="919.21" departLane="best" from="-23519483#3" to="838886530#0"/>
    <trip id="bike194" type="bike_bicycle" depart="923.97" departLane="best" departSpeed="max" from="600619635#0" to="23520354#1"/>
    <trip id="bike195" type="bike_bicycle" depart="928.73" departLane="best" departSpeed="max" from="30518288" to="23519717#2"/>
    <trip id="bike196" type="bike_bicycle" depart="933.50" departLane="best" from="-23521401#2" to="23519159#3"/>
    <trip id="bike197" type="bike_bicycle" depart="938.26" departLane="best" departSpeed="max" from="-1060925382" to="23521401#3"/>
    <trip id="bike198" type="bike_bicycle" depart="943.02" departLane="best" departSpeed="max" from="-600129474" to="23519479#0"/>
    <trip id="bike200" type="bike_bicycle" depart="952.55" departLane="best" from="-600501527#2" to="-23520448#1"/>
    <trip id="bike201" type="bike_bicycle" depart="957.31" departLane="best" from="-836685805#4" to="599998853"/>
    <trip id="bike202" type="bike_bicycle" depart="962.07" departLane="best" from="23521185#1" to="-23519868"/>
    <trip id="bike203" type="bike_bicycle" depart="966.84" departLane="best" from="-23519103#1" to="-23519024#0"/>
    <trip id="bike204" type="bike_bicycle" depart="971.60" departLane="best" from="-23519527" to="-23522098#0"/>
    <trip id="bike205" type="bike_bicycle" depart="976.36" departLane="best" from="23521579" to="23521107#1"/>
    <trip id="bike206" type="bike_bicycle" depart="981.12" departLane="best" from="23519854#0" to="-23520563#0"/>
    <trip id="bike207" type="bike_bicycle" depart="985.89" departLane="best" departSpeed="max" from="-23520116#1" to="23518777#2"/>
    <trip id="bike208" type="bike_bicycle" depart="990.65" departLane="best" from="-23520814#0" to="23518777#0"/>
    <trip id="bike209" type="bike_bicycle" depart="995.41" departLane="best" from="23521995" to="-23519056"/>
    <trip id="bike210" type="bike_bicycle" depart="1000.17" departLane="best" departSpeed="max" from="-599998854" to="-23519854#1"/>
    <trip id="bike211" type="bike_bicycle" depart="1004.94" departLane="best" from="-23520097#0" to="-23520563#0"/>
    <trip id="bike212" type="bike_bicycle" depart="1009.70" departLane="best" from="942212143" to="-23520905"/>
    <trip id="bike213" type="bike_bicycle" depart="1014.46" departLane="best" from="23519706#6" to="188701943"/>
    <trip id="bike214" type="bike_bicycle" depart="1019.23" departLane="best" from="23520783#2" to="23521401#10"/>
    <trip id="bike215" type="bike_bicycle" depart="1023.99" departLane="best" departSpeed="max" from="-23519204#8" to="838919067#1"/>
    <trip id="bike216" type="bike_bicycle" depart="1028.75" departLane="best" departSpeed="max" from="-23519858" to="760083149#0"/>
    <trip id="bike217" type="bike_bicycle" depart="1033.51" departLane="best" from="-224702392#2" to="-23518959#1"/>
    <trip id="bike218" type="bike_bicycle" depart="1038.28" departLane="best" departSpeed="max" from="-23520868" to="243777837#3"/>
    <trip id="bike219" type="bike_bicycle" depart="1043.04" departLane="best" from="-601444719#1" to="-23521743#2"/>
    <trip id="bike220" type="bike_bicycle" depart="1047.80" departLane="best" from="23519762" to="838919069#2"/>
    <trip id="bike221" type="bike_bicycle" depart="1052.56" departLane="best" from="-23519204#1" to="724187421"/>
    <trip id="bike222" type="bike_bicycle" depart="1057.33" departLane="best" from="-272595409#1" to="23519706#8"/>
    <trip id="bike223" type="bike_bicycle" depart="1062.09" departLane="best" from="23520354#1" to="23518959#2"/>
    <trip id="bike224" type="bike_bicycle" depart="1066.85" departLane="best" from="23521743#1" to="23519159#3"/>
    <trip id="bike225" type="bike_bicycle" depart="1071.62" departLane="best" from="-272595409#7" to="23521049#1"/>
    <trip id="bike226" type="bike_bicycle" depart="1076.38" departLane="best" from="-838885129" to="23521049#1"/>
    <trip id="bike227" type="bike_bicycle" depart="1081.14" departLane="best" from="-23520851" to="23519886#0"/>
    <trip id="bike228" type="bike_bicycle" depart="1085.90" departLane="best" departSpeed="max" from="23520905" to="23519025"/>
    <trip id="bike229" type="bike_bicycle" depart="1090.67" departLane="best" from="23519483#0" to="-23521317"/>
    <trip id="bike230" type="bike_bicycle" depart="1095.43" departLane="best" from="23519041#5" to="23521401#2"/>
    <trip id="bike231" type="bike_bicycle" depart="1100.19" departLane="best" from="-23521049#1" to="-23521917#3"/>
    <trip id="bike232" type="bike_bicycle" depart="1104.95" departLane="best" from="23518846#0" to="-23519677"/>
    <trip id="bike233" type="bike_bicycle" depart="1109.72" departLane="best" from="-23520563#1" to="23520515"/>
    <trip id="bike234" type="bike_bicycle" depart="1114.48" departLane="best" from="23520134#2" to="-23519024#3"/>
    <trip id="bike235" type="bike_bicycle" depart="1119.24" departLane="best" from="-596568241" to="23519156#1"/>
    <trip id="bike236" type="bike_bicycle" depart="1124.01" departLane="best" departSpeed="max" from="-599998855" to="-23520374#1"/>
    <trip id="bike237" type="bike_bicycle" depart="1128.77" departLane="best" departSpeed="max" from="-600015262#1" to="599998855"/>
    <trip id="bike238" type="bike_bicycle" depart="1133.53" departLane="best" from="23519131#0" to="-23519061#2"/>
    <trip id="bike239" type="bike_bicycle" depart="1138.29" departLane="best" from="23522056" to="-23521332#2"/>
    <trip id="bike240" type="bike_bicycle" depart="1143.06" departLane="best" from="252223483#0" to="188701943"/>
    <trip id="bike241" type="bike_bicycle" depart="1147.82" departLane="best" departSpeed="max" from="-23522023#1" to="23521134"/>
    <trip id="bike242" type="bike_bicycle" depart="1152.58" departLane="best" from="23522041" to="724187424#0"/>
    <trip id="bike243" type="bike_bicycle" depart="1157.34" departLane="best" departSpeed="max" from="-600015262#1" to="23521086"/>
    <trip id="bike244" type="bike_bicycle" depart="1162.11" departLane="best" departSpeed="max" from="23518923#0" to="23519688#2"/>
    <trip id="bike245" type="bike_bicycle" depart="1166.87" departLane="best" from="23520448#2" to="-23520484#2"/>