<?xml version="1.0" encoding="UTF-8"?>

<!-- generated on 2024-08-23 21:13:47.903129 by randomTrips.py v1_18_0+0000-03ecfdea036
<configuration>
    <net-file value="osm.net.xml.gz"/>
    <output-trip-file value="osm.passenger.trips.xml"/>
    <route-file value="osm.passenger.rou.xml"/>
    <prefix value="veh"/>
    <trip-attributes value="departLane=&quot;best&quot;"/>
    <fringe-start-attributes value="departSpeed=&quot;max&quot;"/>
    <vehicle-class value="passenger"/>
    <lanes value="True"/>
    <fringe-factor value="5"/>
    <allow-fringe.min-length value="1000.0"/>
    <via-edge-types value="highway.motorway,highway.motorway_link,highway.trunk_link,highway.primary_link,highway.secondary_link,highway.tertiary_link"/>
    <min-distance value="300.0"/>
    <min-distance.fringe value="10.0"/>
    <remove-loops value="True"/>
    <validate value="True"/>
    <insertion-density value="12.0"/>
</configuration>
-->

<!-- generated on 2024-08-23 21:13:47 by Eclipse SUMO duarouter Version 1.18.0
<configuration xmlns:xsi="http://www.w3.org/2001/XMLSchema-instance" xsi:noNamespaceSchemaLocation="http://sumo.dlr.de/xsd/duarouterConfiguration.xsd">

    <input>
        <net-file value="osm.net.xml.gz"/>
        <route-files value="osm.passenger.trips.xml"/>
    </input>

    <output>
        <output-file value="osm.passenger.rou.xml"/>
        <alternatives-output value="NUL"/>
    </output>

    <processing>
        <remove-loops value="true"/>
    </processing>

    <time>
        <begin value="0.0"/>
        <end value="3600.0"/>
    </time>

    <report>
        <no-warnings value="true"/>
        <ignore-errors value="true"/>
        <no-step-log value="true"/>
    </report>

</configuration>
-->

<routes xmlns:xsi="http://www.w3.org/2001/XMLSchema-instance" xsi:noNamespaceSchemaLocation="http://sumo.dlr.de/xsd/routes_file.xsd">
    <vType id="veh_passenger" vClass="passenger"/>
    <vehicle id="veh0" type="veh_passenger" depart="0.00" departLane="best">
        <route edges="23519756 600537837#1 -23520967#2 -23520967#1 -23520967#0 -23520814#1 -23520814#0 -836685800#2 -836685800#1 23522098#0 23522098#1 23522098#2 -23518802#3 -23518802#2"/>
    </vehicle>
    <vehicle id="veh1" type="veh_passenger" depart="2.39" departLane="best">
        <route edges="-23521598 23519717#3 23519717#4 23519204#3 -23521995 -23521287#1"/>
    </vehicle>
    <vehicle id="veh2" type="veh_passenger" depart="4.79" departLane="best" departSpeed="max">
        <route edges="23521047 23520783#3 755073153 1053485826#0 1053485826#1 596568240#0 596568240#1 596568242 596568229 724187423 -838919069#3 -838919069#2 838919378 -936923544#1 -936923544#0 -724187422#1 -724187422#0 23520886#0 23518777#0 23518777#1 23518777#2 23518777#3 23518777#4 23520975#0"/>
    </vehicle>
    <vehicle id="veh3" type="veh_passenger" depart="7.18" departLane="best" departSpeed="max">
        <route edges="600015262#0 23519159#2 23520410#0 23520410#1 23519854#3 23519854#4 23519854#5 23519854#6 23520349#3 23520619 23518978#0 23519061#2 23519061#3 -23519706#0 23519339 -282035194 -724187422#0 23521823#0 23521823#1 23521823#2 -23519400"/>
    </vehicle>
    <vehicle id="veh4" type="veh_passenger" depart="9.58" departLane="best" departSpeed="max">
        <route edges="-600129473 23520880#2 23519339 -282035194 -724187422#0 23520886#0 23518777#0 23518777#1 23518777#2 23520428 168706220#1 -23518923#0"/>
    </vehicle>
    <vehicle id="veh5" type="veh_passenger" depart="11.97" departLane="best">
        <route edges="-23520886#2 -23520886#1 -23520886#0 724187422#0 282035194 -23540252 23519706#0 -23519061#3 -23519061#2 -23518978#0 -23520619 -23520349#3 -23519854#6 -23519854#5 -23519854#4 -23519854#3 -23520410#1 -23520410#0 23519159#3"/>
    </vehicle>
    <vehicle id="veh6" type="veh_passenger" depart="14.37" departLane="best">
        <route edges="23518788#5 -1134693557 118670827 421435711#1 23519041#5 23520563#0 23519024#0 23519391#0 23519391#1 23520999#2 23519061#0 23519061#1 23519061#2 23519061#3 -23519706#0 23519339 -282035194 724187422#1 936923544#0 936923544#1 936923544#2 936923544#3 596568243 596568239#1 596568239#2 596568239#3 596568239#4 596568239#5 -23520905"/>
    </vehicle>
    <vehicle id="veh7" type="veh_passenger" depart="16.76" departLane="best">
        <route edges="23519917 -23520062 23519479#2 23519229#2 23519706#5 -23520554 23519563#1"/>
    </vehicle>
    <vehicle id="veh8" type="veh_passenger" depart="19.16" departLane="best">
        <route edges="-23520886#3 -23520886#2 -23520886#1 -23520886#0 724187422#0 282035194 -23540252 23519706#0 -23519061#3 -23519061#2 -23519061#1 -23519061#0 -23520999#2 -23519391#1 600501527#2 23519257 25055326#0 25055326#1 -23519463 601444720 -601444719#1 -601444719#0 -252223483#5 -252223483#4 23519632 23519660#0 23519660#1 23519717#2 23521598 23520050 23520047"/>
    </vehicle>
    <vehicle id="veh9" type="veh_passenger" depart="21.55" departLane="best">
        <route edges="23522098#4 23520349#0 -23520999#4 -23520999#3 23519061#0 23519061#1 23519061#2 23519061#3 -23519706#0 23519339 23521401#0 23521401#1 23521401#2 23521401#3 23521401#6 23521401#7 23521401#8 23521401#9 23521401#10 23522086#0 23521239"/>
    </vehicle>
    <vehicle id="veh10" type="veh_passenger" depart="23.95" departLane="best">
        <route edges="23519164 23519248 23518904 23519483#0 23519483#1 23519483#3 23519483#4 836685805#1 836685805#2 836685805#3 836685805#4 -23520448#4 -23520448#3 -23520448#2 -23520448#1 376034362"/>
    </vehicle>
    <vehicle id="veh11" type="veh_passenger" depart="26.34" departLane="best">
        <route edges="-23519257 -600501527#2 23519391#1 23520999#2 23520999#3 23520999#4 -23521332#3 -23521332#2 -23521332#1 -23521332#0 -23518802#2 -23518802#1 -23518802#0 -836685805#3 -836685805#2 -836685805#1 -23519483#4 -23519483#3"/>
    </vehicle>
    <vehicle id="veh12" type="veh_passenger" depart="28.74" departLane="best">
        <route edges="252223488 721779678 721779676 763589723 252223484#0 252223484#1 252223484#2 252223485 -272595409#7 -272595409#6 -272595409#5 -272595409#4 -272595409#3 -272595409#2 -272595409#1 -836685800#2 -836685800#1 -836685800#0 -836685805#4 -836685805#3 -836685805#2 -836685805#1 -23519483#4 -23519483#3 -23519582#1 -23520038 23520116#1"/>
    </vehicle>
    <vehicle id="veh13" type="veh_passenger" depart="31.13" departLane="best">
        <route edges="-23522126 23521332#3 -23520999#4 -23520999#3 -23520999#2 -23519391#1 600501527#2 23519257 25055326#0 25055326#1 -23519463 601444720 -601444719#1 -601444719#0 252223483#6 -23520067 -23521743#2 -23521743#1 -23521743#0 23521696#1"/>
    </vehicle>
    <vehicle id="veh14" type="veh_passenger" depart="33.53" departLane="best">
        <route edges="-23518889#1 -23518889#0 -836685805#2 -836685805#1 -23519483#4 -23519483#3 -23519483#1 -23519483#0 -23540254 -23519248 838916319#0 838916319#1"/>
    </vehicle>
    <vehicle id="veh15" type="veh_passenger" depart="35.92" departLane="best">
        <route edges="272595409#7 721779874 793411605 763589722 721779676 763589723 252223484#0 252223486 252223483#0 252223483#1 -23519688#1 -23519688#0"/>
    </vehicle>
    <vehicle id="veh16" type="veh_passenger" depart="38.32" departLane="best">
        <route edges="252223483#4 252223483#5 23521120 601444719#1 23520863 23519463 -25055326#1 -25055326#0 -23519257 -600501527#2 23519391#1 23520999#2 23520999#3 23520535#0 -23520619 23520349#4"/>
    </vehicle>
    <vehicle id="veh17" type="veh_passenger" depart="40.71" departLane="best">
        <route edges="282035194 -23540252 23519706#0 23519706#1 -23518959#4 23519479#0 23519479#1 23519479#2 23519229#2 23519706#5 23519706#6 23519858"/>
    </vehicle>
    <vehicle id="veh18" type="veh_passenger" depart="43.11" departLane="best">
        <route edges="-23520644#0 -23519500#0 -23519775 -23519740 -23519660#1 -23519660#0 -23519632 -23519667#1 -23519667#0 -23519173#2 -23519041#1"/>
    </vehicle>
    <vehicle id="veh19" type="veh_passenger" depart="45.50" departLane="best">
        <route edges="23520967#0 23520967#1 23520967#2 23520967#3 23520967#4 -23520305 -23521107#1 -23521107#0 272595409#3 272595409#4 272595409#5 272595409#6 272595409#7 721779874 793411605 252223488 -252221727#3 -252221727#2"/>
    </vehicle>
    <vehicle id="veh20" type="veh_passenger" depart="47.90" departLane="best">
        <route edges="-23519204#0 23518788#5 -1134693557 118670827 421435711#1 23519041#5 23520563#0 23519024#0 23519391#0 23519391#1 23520999#2 23519061#0 23519061#1 23519061#2 23519061#3 -23519706#0 23519339 23521401#0 23521401#1 23521401#2 23521401#3 23521401#6"/>
    </vehicle>
    <vehicle id="veh21" type="veh_passenger" depart="50.29" departLane="best">
        <route edges="-23519479#2 23520062 -23519917 -23518974#2 -23518974#1 -23519391#2 23520999#2 23520999#3 23520999#4 -23520349#0 -23522098#4"/>
    </vehicle>
    <vehicle id="veh22" type="veh_passenger" depart="52.69" departLane="best">
        <route edges="23519717#3 23519972#4 23519972#5 -23519632 252223483#4 252223483#5 23521120 601444719#1 23520863 23519463 -25055326#1 -25055326#0 -23519257 -600501527#2 23519391#1 23520999#2 23519061#0 23519061#1 23519061#2 23519061#3 -23519706#0 23519339 -282035194 724187422#1 -23519131#1 -23519131#0 838919069#0 838885129 23519103#0 23519103#1 -942192617 -600619635#0"/>
    </vehicle>
    <vehicle id="veh23" type="veh_passenger" depart="55.08" departLane="best">
        <route edges="-272595409#2 -272595409#1 -836685800#2 -836685800#1 -836685800#0 -836685805#4 -836685805#3 -836685805#2 -836685805#1 -23519483#4 -23519483#3 -23519483#1 -23519483#0 -23540254 -23519248 838916319#0 838916319#1 23520170 724187421 724187424#0 724187424#1 838886530#2 838886530#4 -23521049#0"/>
    </vehicle>
    <vehicle id="veh25" type="veh_passenger" depart="59.87" departLane="best">
        <route edges="-23519886#1 -23519886#0 -23518788#0 -272595409#4 -272595409#3 23521107#0 23521107#1 23520305 -23520967#4 -23520967#3 -23520967#2 -23520967#1 -23520967#0 -836685802#1 -836685802#0 -23520134#2"/>
    </vehicle>
    <vehicle id="veh26" type="veh_passenger" depart="62.27" departLane="best">
        <route edges="23520132 23520714 -23521737#0 -23520192 -23522056 -23520354#1 -23520374#3 -243777837#3 -23521743#1 -23521743#0 -23521696#0"/>
    </vehicle>
    <vehicle id="veh27" type="veh_passenger" depart="64.66" departLane="best" departSpeed="max">
        <route edges="-23520105 23520783#1 23520783#2 23520783#3 755073153 1053485826#0 1053485826#1 596568240#0 23519261 596568239#2 23519164 23519248 23518904 23519483#0 23519483#1 23519483#3 23519483#4 836685805#1 836685805#2 23518889#0 23518889#1 23519593 -193054993 836685802#0"/>
    </vehicle>
    <vehicle id="veh28" type="veh_passenger" depart="67.06" departLane="best">
        <route edges="838919378 -838919379#1 23521917#2 23521917#3 23521917#5 -23540252 23519706#0 -23519061#3 -23519061#2 -23519061#1 -23519061#0 -23520999#2 -23519391#1 600501527#2 23519257 25055326#0 25055326#1 -23519463 601444720 -601444719#1 -601444719#0 -252223483#5 -252223483#4 23519632 23519660#0 23519660#1 23519740 23519775 23519500#0 23520644#0"/>
    </vehicle>
    <vehicle id="veh29" type="veh_passenger" depart="69.45" departLane="best">
        <route edges="23519041#0 -25055326#0 -23519257 -600501527#2 23519391#1 23520999#2 23519061#0 23519061#1 23519061#2 23519061#3 -23519706#0 23519339 -282035194 724187422#1 -23519131#1 -23519131#0 838919069#0 838885129 -838886530#5 23521049#1 23521049#2"/>
    </vehicle>
    <vehicle id="veh30" type="veh_passenger" depart="71.85" departLane="best">
        <route edges="252223485 -272595409#7 -272595409#6 -272595409#5 -272595409#4 -272595409#3 -272595409#2 -272595409#1 -836685800#2 -836685800#1 23522098#0"/>
    </vehicle>
    <vehicle id="veh31" type="veh_passenger" depart="74.24" departLane="best">
        <route edges="-23520967#2 -23520967#1 -23520967#0 -836685802#1 -836685802#0 193054993 23520448#3 23520448#4 -836685805#4 23518802#0 23518926#1 23518926#2"/>
    </vehicle>
    <vehicle id="veh32" type="veh_passenger" depart="76.64" departLane="best" departSpeed="max">
        <route edges="-23522023#1 -23522023#0 -23521401#9 -23521401#8 -23521401#7 -23521401#6 -23521401#3 -23521401#2 -23521401#1 -23521401#0 -23540252 23519706#0 -23519061#3 -23519061#2 -23519061#1 -23519061#0 -23520999#2 -23519391#1 600501527#2 23519257 25055326#0 25055326#1 -23519463 601444720 -601444719#1 -601444719#0 -252223483#5 -252223483#4 23519632 -23519972#5 -23519972#4 -23519972#3 -23519972#2 23519206 23519204#6 -23521950"/>
    </vehicle>
    <vehicle id="veh33" type="veh_passenger" depart="79.03" departLane="best" departSpeed="max">
        <route edges="-23520868 -23518777#1 -23518777#0 -23520886#0 724187422#0 724187422#1 936923544#0 936923544#1 936923544#2 936923544#3 596568243 596568239#1 596568239#2 596568239#3 596568239#4 596568239#5 23520783#0 23520783#1 23520783#2 23520783#3 755073153"/>
    </vehicle>
    <vehicle id="veh34" type="veh_passenger" depart="81.43" departLane="best">
        <route edges="596568239#1 596568239#2 23519164 838916319#0 838916319#1 838916319#2 838916319#3 838916319#4 23521917#0 23521917#1 23521917#2 23521917#3 23521917#5 -23540252 23519706#0 23519706#1 -23518959#4 23519479#0 23519479#1 23519479#2 23519229#2 23519706#5 23519706#6 23519706#7 23519706#8 -252223483#9"/>
    </vehicle>
    <vehicle id="veh35" type="veh_passenger" depart="83.82" departLane="best">
        <route edges="23519972#3 23519972#4 23519972#5 -23519632 252223483#4 252223483#5 23521120 601444719#1 23520863 23519463 -25055326#1 -25055326#0 -23519257 -600501527#2 23519391#1 23520999#2 23519061#0 23519061#1 23519061#2 23519061#3 -23519706#0 23519339 -282035194 724187422#1 -23519131#1 -23519131#0 838919069#0 838919069#1 838919069#2 838919069#3"/>
    </vehicle>
    <vehicle id="veh36" type="veh_passenger" depart="86.22" departLane="best" departSpeed="max">
        <route edges="600554930#0 600554930#1 600554930#2 252221727#2 252221727#3 721779678 721779676 763589723 252223484#0 252223484#1 252223484#2 252223485 -272595409#7 -272595409#6 -272595409#5 -272595409#4 -272595409#3 23521107#0 23521107#1 23520305 -23520967#4 -23520967#3 -23520967#2 -23520967#1 -23520967#0 -836685802#1 -836685802#0 193054993 -23519593 23518889#2"/>
    </vehicle>
    <vehicle id="veh37" type="veh_passenger" depart="88.61" departLane="best">
        <route edges="-23521401#7 -23521401#6 -23521401#3 -23521401#2 -23521401#1 -23521401#0 -23540252 23519706#0 23519706#1 -23518959#4 23519479#0 23519479#1 23519479#2 23519229#2 23519706#5 23519706#6 23519706#7 23519706#8 -23521696#2 243777837#0 243777839 -23521743#0"/>
    </vehicle>
    <vehicle id="veh38" type="veh_passenger" depart="91.01" departLane="best">
        <route edges="23519055 596568240#0 596568240#1 596568242 596568229 724187423 -838919069#3 -838919069#2 838919378 -838919379#1 -23521917#1"/>
    </vehicle>
    <vehicle id="veh39" type="veh_passenger" depart="93.40" departLane="best" departSpeed="max">
        <route edges="23519211 -838919067#1 -838919067#0 838886530#4 838886530#5 -838885129 -838919069#0 23519131#0 23519131#1 936923544#0 181255488 600129474"/>
    </vehicle>
    <vehicle id="veh40" type="veh_passenger" depart="95.80" departLane="best" departSpeed="max">
        <route edges="-599998854 -23519061#3 -23519061#2 -23519061#1 -23519061#0 23520999#3 23520999#4 -23521332#3 -23522103 -23522098#3 -23522098#2 -23522098#1 -23522098#0 836685800#1 836685800#2 272595409#1 272595409#2 272595409#3 272595409#4 272595409#5 272595409#6 272595409#7 721779874 793411605 252223488 -252221727#3 -252221727#2 -600554930#2 -23521217"/>
    </vehicle>
    <vehicle id="veh41" type="veh_passenger" depart="98.19" departLane="best" departSpeed="max">
        <route edges="942162016 -272595409#6 -272595409#5 -272595409#4 -272595409#3 -272595409#2 -272595409#1 -836685800#2 -836685800#1 23522098#0 23522098#1 23522098#2 23522098#3 23522098#4 600501527#0 600501527#1 600501527#2 23519173#0 23519173#1"/>
    </vehicle>
    <vehicle id="veh42" type="veh_passenger" depart="100.59" departLane="best">
        <route edges="-23519248 838916319#0 838916319#1 838916319#2 838916319#3 838916319#4 23521917#0 23521917#1 23521917#2 23521917#3 23521917#5 -23540252 23519706#0 -23519061#3 -23519061#2 -23519061#1 -23519061#0 -23520999#2 -23519391#1 600501527#2 23519173#0 23519173#1 23519041#2 23519041#3"/>
    </vehicle>
    <vehicle id="veh43" type="veh_passenger" depart="102.98" departLane="best">
        <route edges="-23519508 -23518777#1 -23518777#0 -23520886#0 724187422#0 282035194 -23540252 23519706#0 -23519061#3 -23519061#2 -23519061#1 -23519061#0 23520999#3 23520999#4 -23521332#3 -23522103 -23522098#3 -23522098#2 -23522098#1 -23522098#0 -836685800#0 -23520448#4"/>
    </vehicle>
    <vehicle id="veh44" type="veh_passenger" depart="105.37" departLane="best">
        <route edges="23521917#2 23521917#3 23521917#5 -23540252 23519706#0 23519706#1 -23518959#4 23519479#0 23519479#1 23519479#2 23519229#2 23519706#5 23519706#6 23519706#7 23519706#8 252223483#12 1060925382"/>
    </vehicle>
    <vehicle id="veh45" type="veh_passenger" depart="107.77" departLane="best">
        <route edges="-23519103#1 -23519103#0 -838886530#5 -23521049#0 838919378 936923544#2 936923544#3 596568243 596568239#1 596568239#2 23519164 23519248 23518904 23519483#0 23519483#1 23519483#3 23519483#4 836685805#1"/>
    </vehicle>
    <vehicle id="veh46" type="veh_passenger" depart="110.16" departLane="best" departSpeed="max">
        <route edges="942162016 -272595409#6 -272595409#5 -272595409#4 -272595409#3 -272595409#2 -272595409#1 -836685800#2 -836685800#1 23522098#0 23522098#1 23522098#2 23522098#3 23522098#4 600501527#0 600501527#1 23519391#1"/>
    </vehicle>
    <vehicle id="veh47" type="veh_passenger" depart="112.56" departLane="best">
        <route edges="838919378 -838919379#1 23521917#2 23521917#3 23521917#5 -23540252 23519706#0 23519706#1 23519706#2 23519706#3 599998850"/>
    </vehicle>
    <vehicle id="veh48" type="veh_passenger" depart="114.95" departLane="best">
        <route edges="193054993 23520448#3 23520448#4 836685800#0 23522098#0 23522098#1 23522098#2 23522098#3 23522103 23521332#3 -23520999#4 -23520999#3 23519061#0 23519061#1 23519061#2 23519061#3 -23519706#0 23519339 -282035194 -724187422#0 23520886#0 23518777#0 23518777#1 23518777#2 23518777#3 23518777#4 23519156#0 23519156#1 23521668 23521520"/>
    </vehicle>
    <vehicle id="veh49" type="veh_passenger" depart="117.35" departLane="best">
        <route edges="23520349#0 -23520999#4 -23520999#3 23519061#0 23519061#1 23519061#2 23519061#3 -23519706#0 -23520880#2 -23520880#1 -23520880#0 23519483#1"/>
    </vehicle>
    <vehicle id="veh51" type="veh_passenger" depart="122.14" departLane="best">
        <route edges="-23519563#0 -23519463 -23518788#11 -23518788#10 -23518788#9 -23518788#8 -23518788#7 -20300059"/>
    </vehicle>
    <vehicle id="veh52" type="veh_passenger" depart="124.53" departLane="best" departSpeed="max">
        <route edges="-600619639 23520975#1 -23519103#0 -838886530#5 -23521049#0 838919378 936923544#2 936923544#3 596568243 596568239#1 596568239#2 23519164 23519248 23518904 23519483#0 23519483#1 23519483#3 23519483#4 836685805#1 836685805#2 836685805#3 836685805#4 836685800#0 836685800#1 836685800#2 23520814#0 23520814#1 836685801#0"/>
    </vehicle>
    <vehicle id="veh53" type="veh_passenger" depart="126.93" departLane="best">
        <route edges="1053485826#0 1053485826#1 596568240#0 596568240#1 596568242 596568241 596568238#0 596568237#1 838916319#1 838916319#2 838916319#3 838916319#4 23521917#0 23521917#1 23521917#2 23521917#3 23521917#5 -23540252 23519706#0 -23519061#3 -23520535#1"/>
    </vehicle>
    <vehicle id="veh54" type="veh_passenger" depart="129.32" departLane="best" departSpeed="max">
        <route edges="600554930#0 600554930#1 600554930#2 252221727#2 252221727#3 721779678 721779676 763589723 252223484#0 252223484#1 252223484#2 252223485 -272595409#7 -272595409#6 -272595409#5 -272595409#4 -272595409#3 -272595409#2 -272595409#1 -836685800#2 -836685800#1 23522098#0 23522098#1 23522098#2 23522098#3 23522103 23521332#3 -23520999#4 -23520999#3 23519061#0 23519061#1 23519061#2 23519061#3 599998854"/>
    </vehicle>
    <vehicle id="veh55" type="veh_passenger" depart="131.72" departLane="best">
        <route edges="23521904#2 23522041 -23519206 23519972#2 23519972#3 -23519717#3 -23519717#2 -23519717#1 -23519717#0 23520374#0 23520628"/>
    </vehicle>
    <vehicle id="veh56" type="veh_passenger" depart="134.11" departLane="best">
        <route edges="23519483#3 23519483#4 836685805#1 836685805#2 23518889#0 23518889#1 23519593 -193054993 -23520134#2 -23520134#1"/>
    </vehicle>
    <vehicle id="veh57" type="veh_passenger" depart="136.51" departLane="best">
        <route edges="-23521401#12 -23521401#11 -23521401#10 -23521401#9 -23521401#8 -23521401#7 -23521401#6 -23521401#3 -23521401#2 -23521401#1 -23521401#0 -23540252 -23520880#2 -23520880#1 -23520692 -23519080 23519483#3"/>
    </vehicle>
    <vehicle id="veh58" type="veh_passenger" depart="138.90" departLane="best">
        <route edges="23521743#0 -243777839 -243777837#0 23521696#2 -23519706#8 -23519706#7 -23519706#6 -23519706#5 -23519229#2 -23519479#2 -23519479#1 -23519479#0 23518959#4 -23519706#1 -23519706#0 23519339 -282035194 724187422#1 936923544#0 936923544#1 936923544#2 23519407#1"/>
    </vehicle>
    <vehicle id="veh59" type="veh_passenger" depart="141.30" departLane="best" departSpeed="max">
        <route edges="-1060925382 -252223483#12 -252223483#9 -252223483#8 -252223483#7 -252223483#6 -252223483#5 -252223483#4 -252223483#3 -252223483#2 -252223483#1 -252223483#0 721779873 252223484#2 252223485 -272595409#7 -272595409#6 -272595409#5 -272595409#4"/>
    </vehicle>
    <vehicle id="veh60" type="veh_passenger" depart="143.69" departLane="best">
        <route edges="-23518777#0 -23520886#0 724187422#0 282035194 -23540252 23519706#0 -23519061#3 -23519061#2 -23519061#1 -23519061#0 -23520999#2 -23519391#1 600501527#2 23519257 25055326#0 25055326#1 -23519463 601444720"/>
    </vehicle>
    <vehicle id="veh61" type="veh_passenger" depart="146.09" departLane="best">
        <route edges="596568239#2 23519164 23519248 23518904 23519483#0 23519483#1 23519483#3 23519483#4 836685805#1 836685805#2 836685805#3 836685805#4 836685800#0 836685800#1 836685800#2 272595409#1 272595409#2 272595409#3 272595409#4 272595409#5 272595409#6 272595409#7"/>
    </vehicle>
    <vehicle id="veh62" type="veh_passenger" depart="148.48" departLane="best" departSpeed="max">
        <route edges="-23521975 600554930#1 600554930#2 252221727#2 252221727#3 721779678 721779676 763589723 252223484#0 252223484#1 252223484#2 252223485 -272595409#7 -272595409#6 -272595409#5 -272595409#4 -272595409#3 -272595409#2 -272595409#1 -836685800#2 -836685800#1 23522098#0 23522098#1 23522098#2 23522098#3 23522103 23521332#3 -23520999#4 -23520999#3 23519061#0 23519061#1 23519061#2 23519061#3 -23519706#0 23519339 -282035194 -724187422#0 23520886#0 23518777#0 23518777#1 23518777#2 23520428 -23519156#2"/>
    </vehicle>
    <vehicle id="veh63" type="veh_passenger" depart="150.88" departLane="best">
        <route edges="596568239#2 23519164 23519248 23518904 23519483#0 23519483#1 23519483#3 23519483#4 836685805#1 836685805#2 836685805#3 836685805#4 836685800#0 836685800#1 836685800#2 272595409#1 272595409#2 272595409#3 272595409#4 272595409#5 272595409#6 272595409#7 721779874 793411605 763589722 721779676 252223487 760083147 760083145 760083149#0 760083149#1"/>
    </vehicle>
    <vehicle id="veh64" type="veh_passenger" depart="153.27" departLane="best" departSpeed="max">
        <route edges="-23519204#8 -23519204#7 -23519204#6 -23519206 23519972#2 23519972#3 23519972#4 23519972#5 -23519632 252223483#4 252223483#5 23521120 601444719#1 23520863 23519463 -25055326#1 -25055326#0 -23519257 -600501527#2 23519391#1 23520999#2 23519061#0 23519061#1 23519061#2 23519061#3 -23519706#0 23519339 -282035194 724187422#1 936923544#0 936923544#1 936923544#2 936923544#3 596568243 596568239#1 596568239#2 596568239#3 23519055"/>
    </vehicle>
    <vehicle id="veh65" type="veh_passenger" depart="155.67" departLane="best" departSpeed="max">
        <route edges="-23519103#2 -23519103#1 -23519103#0 -838885129 -838919069#0 23519131#0 23519131#1 936923544#0 181255488 23521917#5 -23540252 23519706#0 -23519061#3 -23519061#2 -23519061#1 -23519061#0 -23520999#2 -23519391#1 600501527#2 23519257 25055326#0 25055326#1 -23519463 601444720 -601444719#1 -601444719#0 -252223483#5 -252223483#4 23519632 -23519972#5 -23519972#4 23519717#4 23519204#3 -23521995"/>
    </vehicle>
    <vehicle id="veh66" type="veh_passenger" depart="158.06" departLane="best">
        <route edges="-23521401#8 -23521401#7 -23521401#6 -23521401#3 -23521401#2 -23521401#1 -23521401#0 -23540252 23519706#0 -23519061#3 -23519061#2 -23519061#1 -23519061#0 -23520999#2 -23519391#1 600501527#2 23519257 25055326#0 25055326#1 -23519463 601444720 -601444719#1 -601444719#0 -252223483#5 -252223483#4 23519632 23519660#0 23519660#1 23519717#2 23521598 23520050 23520047 23520030 -23519837#0"/>
    </vehicle>
    <vehicle id="veh67" type="veh_passenger" depart="160.46" departLane="best">
        <route edges="836685802#1 -23520814#1 -23520814#0 -23519691 23520423 23519688#0 23519688#1 23519688#2 23521317 -23519717#4 23519972#4 23519241 23519660#1"/>
    </vehicle>
    <vehicle id="veh68" type="veh_passenger" depart="162.85" departLane="best" departSpeed="max">
        <route edges="-600129473 23520880#2 23519339 -282035194 724187422#1 -23519131#1 -23519131#0 838919069#0 838885129 -838886530#5 23521049#1 -23521101#1"/>
    </vehicle>
    <vehicle id="veh69" type="veh_passenger" depart="165.25" departLane="best" departSpeed="max">
        <route edges="23518923#0 -168706220#1 -168706220#0 -23518777#2 -23518777#1 -23518777#0 -23520886#0 724187422#0 282035194 -23540252 23519706#0 23519706#1 -23518959#4 23519479#0 23519479#1 23519479#2 23519229#2 23519706#5 23519706#6 23519706#7 23519706#8 -23521696#2"/>
    </vehicle>
    <vehicle id="veh70" type="veh_passenger" depart="167.64" departLane="best">
        <route edges="23520692 23520880#1 23520880#2 23519706#0 23519706#1 -23518959#4 23519479#0 23519479#1 23519479#2 23519229#2 23519706#5 23519706#6 23519706#7 23519706#8 -252223483#9 -252223483#8 -252223483#7"/>
    </vehicle>
    <vehicle id="veh71" type="veh_passenger" depart="170.04" departLane="best" departSpeed="max">
        <route edges="942162016 -272595409#6 -272595409#5 -272595409#4 -272595409#3 -272595409#2 -272595409#1 -836685800#2 -836685800#1 -836685800#0 -836685805#4 -836685805#3 -836685805#2 -836685805#1 -23519483#4 -23519483#3 -23519483#1 -23519483#0 -23540254 -23519248 838916319#0 838916319#1 23520170 596568243 596568239#1 596568239#2 596568239#3 596568239#4 596568239#5 23520783#0 23520783#1 23520783#2 23520783#3"/>
    </vehicle>
    <vehicle id="veh72" type="veh_passenger" depart="172.43" departLane="best">
        <route edges="600501527#0 600501527#1 600501527#2 23519257 25055326#0 25055326#1 -23519463 601444720 -601444719#1 -601444719#0 -252223483#5 -252223483#4 23519632 -23519972#5 -23519972#4 -23519972#3 -23519972#2 23519206 23519204#6 23519204#7 23519204#8"/>
    </vehicle>
    <vehicle id="veh73" type="veh_passenger" depart="174.83" departLane="best">
        <route edges="252221727#3 721779678 721779676 763589723 252223484#0 252223486 252223483#0 23519724#1 23519868 23521317 -23519717#4 -23519972#3 -23519056 23520047 23520035"/>
    </vehicle>
    <vehicle id="veh74" type="veh_passenger" depart="177.22" departLane="best">
        <route edges="23520967#3 23520967#4 -23520305 -23521107#1 -23521107#0 272595409#3 272595409#4 272595409#5 272595409#6 272595409#7 721779874 793411605 252223488 -252221727#3 -252221727#2 -600554930#2 -23521217"/>
    </vehicle>
    <vehicle id="veh75" type="veh_passenger" depart="179.62" departLane="best">
        <route edges="-23519131#1 -23519131#0 838919069#0 838919069#1 838919378 936923544#2 936923544#3 596568243 596568239#1 596568239#2 23519164 23519248 23518904 23519483#0 23519483#1 23519483#3 23519483#4 23520484#0 23520484#1 23520484#2"/>
    </vehicle>
    <vehicle id="veh76" type="veh_passenger" depart="182.01" departLane="best">
        <route edges="-23520967#1 -23520967#0 -23520814#1 -23520814#0 -23519691 23520423 23519688#0 23519688#1 23519688#2 23521317 -23519717#4 -23519717#3 23521598 600483609 600483610#1 600483610#2"/>
    </vehicle>
    <vehicle id="veh77" type="veh_passenger" depart="184.41" departLane="best">
        <route edges="272595409#7 721779874 793411605 763589722 721779676 763589723 252223484#0 252223486 252223483#0 23519724#1 23519724#2 23521287#1 -23521904#4 -23521904#3 -23521904#2 23521950 -23519204#6"/>
    </vehicle>
    <vehicle id="veh78" type="veh_passenger" depart="186.80" departLane="best" departSpeed="max">
        <route edges="-23521049#2 -23521049#1 838886530#5 -838885129 -838919069#0 23519131#0 23519131#1 -724187422#1 -724187422#0 23520886#0 23520886#1 23520886#2 23520886#3 23520886#4 23520886#5"/>
    </vehicle>
    <vehicle id="veh79" type="veh_passenger" depart="189.20" departLane="best">
        <route edges="-23520880#0 23519483#1 23519080 -23520349#5 -23520349#4 -23520349#3 -23519854#6 -23519854#5"/>
    </vehicle>
    <vehicle id="veh80" type="veh_passenger" depart="191.59" departLane="best">