<?xml version="1.0" encoding="UTF-8"?>

<!-- generated on 2024-08-23 21:13:49.732179 by randomTrips.py v1_18_0+0000-03ecfdea036
<configuration>
    <net-file value="osm.net.xml.gz"/>
    <output-trip-file value="osm.pedestrian.trips.xml"/>
    <route-file value="osm.pedestrian.rou.xml"/>
    <pedestrians value="True"/>
    <prefix value="ped"/>
    <vehicle-class value="pedestrian"/>
    <fringe-factor value="1"/>
    <max-distance value="2000.0"/>
    <insertion-density value="10.0"/>
</configuration>
-->

<routes xmlns:xsi="http://www.w3.org/2001/XMLSchema-instance" xsi:noNamespaceSchemaLocation="http://sumo.dlr.de/xsd/routes_file.xsd">
    <vType id="ped_pedestrian" vClass="pedestrian"/>
    <person id="ped0" depart="0.00" type="ped_pedestrian">
        <walk from="252223483#4" to="-23518788#0"/>
    </person>
    <person id="ped1" depart="9.18" type="ped_pedestrian">
        <walk from="177077138#4" to="-836685800#0"/>
    </person>
    <person id="ped2" depart="18.37" type="ped_pedestrian">
        <walk from="596568237#1" to="272595409#1"/>
    </person>
    <person id="ped3" depart="27.55" type="ped_pedestrian">
        <walk from="838916319#0" to="-23520814#0"/>
    </person>
    <person id="ped4" depart="36.74" type="ped_pedestrian">
        <walk from="222412319#1" to="-23518889#0"/>
    </person>
    <person id="ped5" depart="45.92" type="ped_pedestrian">
        <walk from="-724187422#1" to="23519483#0"/>
    </person>
    <person id="ped6" depart="55.10" type="ped_pedestrian">
        <walk from="-23518889#0" to="-272595409#7"/>
    </person>
    <person id="ped7" depart="64.29" type="ped_pedestrian">
        <walk from="252223483#7" to="23520170"/>
    </person>
    <person id="ped8" depart="73.47" type="ped_pedestrian">
        <walk from="-836685800#0" to="23521890#1"/>
    </person>
    <person id="ped9" depart="82.66" type="ped_pedestrian">
        <walk from="790969616" to="-222412317#1"/>
    </person>
    <person id="ped10" depart="91.84" type="ped_pedestrian">
        <walk from="755073154#1" to="272595409#7"/>
    </person>
    <person id="ped11" depart="101.02" type="ped_pedestrian">
        <walk from="177077157#2" to="-252223483#5"/>
    </person>
    <person id="ped12" depart="110.21" type="ped_pedestrian">
        <walk from="839220369#1" to="177077157#1"/>
    </person>
    <person id="ped13" depart="119.39" type="ped_pedestrian">
        <walk from="-23521107#0" to="-23521401#0"/>
    </person>
    <person id="ped14" depart="128.58" type="ped_pedestrian">
        <walk from="836685805#1" to="23521917#3"/>
    </person>
    <person id="ped15" depart="137.76" type="ped_pedestrian">
        <walk from="790969616" to="556406561#0"/>
    </person>
    <person id="ped16" depart="146.95" type="ped_pedestrian">
        <walk from="23520116#1" to="936591677"/>
    </person>
    <person id="ped17" depart="156.13" type="ped_pedestrian">
        <walk from="221921638" to="23520230"/>
    </person>
    <person id="ped18" depart="165.31" type="ped_pedestrian">
        <walk from="795855559#0" to="252223483#0"/>
    </person>
    <person id="ped19" depart="174.50" type="ped_pedestrian">
        <walk from="838882816#0" to="23521401#0"/>
    </person>
    <person id="ped20" depart="183.68" type="ped_pedestrian">
        <walk from="461341755" to="-23519483#0"/>
    </person>
    <person id="ped21" depart="192.87" type="ped_pedestrian">
        <walk from="-836685800#2" to="177077147#0"/>
    </person>
    <person id="ped22" depart="202.05" type="ped_pedestrian">
        <walk from="-23520484#2" to="-836685805#1"/>
    </person>
    <person id="ped23" depart="211.23" type="ped_pedestrian">
        <walk from="-23521696#2" to="177077138#5"/>
    </person>
    <person id="ped24" depart="220.42" type="ped_pedestrian">
        <walk from="252223483#3" to="221696627"/>
    </person>
    <person id="ped25" depart="229.60" type="ped_pedestrian">
        <walk from="221806189" to="-600501526#1"/>
    </person>
    <person id="ped26" depart="238.79" type="ped_pedestrian">
        <walk from="177077138#2" to="838935826#0"/>
    </person>
    <person id="ped27" depart="247.97" type="ped_pedestrian">
        <walk from="252223483#7" to="23521917#5"/>
    </person>
    <person id="ped28" depart="257.15" type="ped_pedestrian">
        <walk from="-252223483#9" to="556406561#0"/>
    </person>
    <person id="ped29" depart="266.34" type="ped_pedestrian">
        <walk from="-252223483#7" to="221922978"/>
    </person>
    <person id="ped30" depart="275.52" type="ped_pedestrian">
        <walk from="951577159#0" to="252223483#4"/>
    </person>
    <person id="ped31" depart="284.71" type="ped_pedestrian">
        <walk from="23520484#2" to="272595409#3"/>
    </person>
    <person id="ped32" depart="293.89" type="ped_pedestrian">
        <walk from="836685800#2" to="721779874"/>
    </person>
    <person id="ped33" depart="303.07" type="ped_pedestrian">
        <walk from="-836685800#2" to="-23519080"/>
    </person>
    <person id="ped34" depart="312.26" type="ped_pedestrian">
        <walk from="177077152#0" to="177077138#2"/>
    </person>
    <person id="ped35" depart="321.44" type="ped_pedestrian">
        <walk from="-600501526#1" to="838935826#1"/>
    </person>
    <person id="ped36" depart="330.63" type="ped_pedestrian">
        <walk from="252223483#9" to="222241951"/>
    </person>
    <person id="ped37" depart="339.81" type="ped_pedestrian">
        <walk from="838928074#0" to="222976569#2"/>
    </person>
    <person id="ped38" depart="348.99" type="ped_pedestrian">
        <walk from="177077138#1" to="-942162016"/>
    </person>
    <person id="ped39" depart="358.18" type="ped_pedestrian">
        <walk from="23520708" to="177077138#1"/>
    </person>
    <person id="ped40" depart="367.36" type="ped_pedestrian">
        <walk from="23521890#0" to="838916319#3"/>
    </person>
    <person id="ped41" depart="376.55" type="ped_pedestrian">
        <walk from="222243788" to="-724187422#1"/>
    </person>
    <person id="ped42" depart="385.73" type="ped_pedestrian">
        <walk from="-23521107#0" to="-23519483#0"/>
    </person>
    <person id="ped43" depart="394.91" type="ped_pedestrian">
        <walk from="-23521917#1" to="252223483#12"/>
    </person>
    <person id="ped44" depart="404.10" type="ped_pedestrian">
        <walk from="755073152#0" to="222412319#1"/>
    </person>
    <person id="ped45" depart="413.28" type="ped_pedestrian">
        <walk from="-23519582#1" to="221922978"/>
    </person>
    <person id="ped46" depart="422.47" type="ped_pedestrian">
        <walk from="936591677" to="838882816#0"/>
    </person>
    <person id="ped47" depart="431.65" type="ped_pedestrian">
        <walk from="-222412318" to="556406343"/>
    </person>
    <person id="ped48" depart="440.84" type="ped_pedestrian">
        <walk from="272595409#2" to="23520116#1"/>
    </person>
    <person id="ped49" depart="450.02" type="ped_pedestrian">
        <walk from="177077138#2" to="252223483#5"/>
    </person>
    <person id="ped50" depart="459.20" type="ped_pedestrian">
        <walk from="-23521917#2" to="222420360"/>
    </person>
    <person id="ped51" depart="468.39" type="ped_pedestrian">
        <walk from="222976569#0" to="839220369#0"/>
    </person>
    <person id="ped52" depart="477.57" type="ped_pedestrian">
        <walk from="23519339" to="-272595409#2"/>
    </person>
    <person id="ped53" depart="486.76" type="ped_pedestrian">
        <walk from="838928073#1" to="838882817#0"/>
    </person>
    <person id="ped54" depart="495.94" type="ped_pedestrian">
        <walk from="177077147#2" to="252223483#4"/>
    </person>
    <person id="ped55" depart="505.12" type="ped_pedestrian">
        <walk from="23521917#5" to="-252223483#4"/>
    </person>
    <person id="ped56" depart="514.31" type="ped_pedestrian">
        <walk from="721779677" to="23520142"/>
    </person>
    <person id="ped57" depart="523.49" type="ped_pedestrian">
        <walk from="724187420" to="23520076"/>
    </person>
    <person id="ped58" depart="532.68" type="ped_pedestrian">
        <walk from="-224703848#1" to="838935825#0"/>
    </person>
    <person id="ped59" depart="541.86" type="ped_pedestrian">
        <walk from="838882818#0" to="795855559#1"/>
    </person>
    <person id="ped60" depart="551.04" type="ped_pedestrian">
        <walk from="177077150#2" to="-23519483#4"/>
    </person>
    <person id="ped61" depart="560.23" type="ped_pedestrian">
        <walk from="838882818#0" to="839220368#0"/>
    </person>
    <person id="ped62" depart="569.41" type="ped_pedestrian">
        <walk from="-23520814#0" to="23519159#0"/>
    </person>
    <person id="ped63" depart="578.60" type="ped_pedestrian">
        <walk from="-23519706#8" to="600501526#1"/>
    </person>
    <person id="ped64" depart="587.78" type="ped_pedestrian">
        <walk from="721779678" to="-23540254"/>
    </person>
    <person id="ped65" depart="596.96" type="ped_pedestrian">
        <walk from="23518889#0" to="23520230"/>
    </person>
    <person id="ped66" depart="606.15" type="ped_pedestrian">
        <walk from="222412319#1" to="-600501526#1"/>
    </person>
    <person id="ped67" depart="615.33" type="ped_pedestrian">
        <walk from="23520142" to="556406561#0"/>
    </person>
    <person id="ped68" depart="624.52" type="ped_pedestrian">
        <walk from="-282035194" to="177077151"/>
    </person>
    <person id="ped69" depart="633.70" type="ped_pedestrian">
        <walk from="951577159#1" to="252223483#7"/>
    </person>
    <person id="ped70" depart="642.88" type="ped_pedestrian">
        <walk from="222424916" to="23519483#4"/>
    </person>
    <person id="ped71" depart="652.07" type="ped_pedestrian">
        <walk from="-23521917#5" to="-836685800#1"/>
    </person>
    <person id="ped72" depart="661.25" type="ped_pedestrian">
        <walk from="177077157#2" to="23521890#1"/>
    </person>
    <person id="ped73" depart="670.44" type="ped_pedestrian">
        <walk from="-836685800#2" to="-836685800#0"/>
    </person>
    <person id="ped74" depart="679.62" type="ped_pedestrian">
        <walk from="-23519706#8" to="252223483#2"/>
    </person>
    <person id="ped75" depart="688.81" type="ped_pedestrian">
        <walk from="-836685800#2" to="838928073#0"/>
    </person>
    <person id="ped76" depart="697.99" type="ped_pedestrian">
        <walk from="836685805#4" to="-23519706#8"/>
    </person>
    <person id="ped77" depart="707.17" type="ped_pedestrian">
        <walk from="-836685805#2" to="252223487"/>
    </person>
    <person id="ped78" depart="716.36" type="ped_pedestrian">
        <walk from="-724187422#0" to="-252221727#3"/>
    </person>
    <person id="ped79" depart="725.54" type="ped_pedestrian">
        <walk from="838935825#1" to="23520880#0"/>
    </person>
    <person id="ped80" depart="734.73" type="ped_pedestrian">
        <walk from="23518788#0" to="724187422#0"/>
    </person>
    <person id="ped81" depart="743.91" type="ped_pedestrian">
        <walk from="790969616" to="-272595409#5"/>
    </person>
    <person id="ped82" depart="753.09" type="ped_pedestrian">
        <walk from="-23521401#0" to="222412320"/>
    </person>
    <person id="ped83" depart="762.28" type="ped_pedestrian">
        <walk from="222412319#1" to="224703848#1"/>
    </person>
    <person id="ped84" depart="771.46" type="ped_pedestrian">
        <walk from="556406561#0" to="252223488"/>
    </person>
    <person id="ped85" depart="780.65" type="ped_pedestrian">
        <walk from="936923544#3" to="-23521401#0"/>
    </person>
    <person id="ped86" depart="789.83" type="ped_pedestrian">
        <walk from="838882816#0" to="-942162016"/>
    </person>
    <person id="ped87" depart="799.01" type="ped_pedestrian">
        <walk from="-272595409#5" to="222976567"/>
    </person>
    <person id="ped88" depart="808.20" type="ped_pedestrian">
        <walk from="-942162016" to="838928076#0"/>
    </person>
    <person id="ped89" depart="817.38" type="ped_pedestrian">
        <walk from="222424917" to="838882816#0"/>
    </person>
    <person id="ped90" depart="826.57" type="ped_pedestrian">
        <walk from="23520230" to="-23519483#1"/>
    </person>
    <person id="ped91" depart="835.75" type="ped_pedestrian">
        <walk from="951577159#2" to="836685800#0"/>
    </person>
    <person id="ped92" depart="844.93" type="ped_pedestrian">
        <walk from="936591676" to="838928076#1"/>
    </person>
    <person id="ped93" depart="854.12" type="ped_pedestrian">
        <walk from="836685805#2" to="-252223483#7"/>
    </person>
    <person id="ped94" depart="863.30" type="ped_pedestrian">
        <walk from="23519159#0" to="-724187422#0"/>
    </person>
    <person id="ped95" depart="872.49" type="ped_pedestrian">
        <walk from="222243788" to="-23519483#4"/>
    </person>
    <person id="ped96" depart="881.67" type="ped_pedestrian">
        <walk from="221922978" to="942162016"/>
    </person>
    <person id="ped97" depart="890.85" type="ped_pedestrian">
        <walk from="839220369#1" to="951577159#1"/>
    </person>
    <person id="ped98" depart="900.04" type="ped_pedestrian">
        <walk from="23520484#0" to="556406342#1"/>
    </person>
    <person id="ped99" depart="909.22" type="ped_pedestrian">
        <walk from="-252223483#4" to="177077147#2"/>
    </person>
    <person id="ped100" depart="918.41" type="ped_pedestrian">
        <walk from="936591676" to="23521401#0"/>
    </person>
    <person id="ped101" depart="927.59" type="ped_pedestrian">
        <walk from="23520170" to="596568239#2"/>
    </person>
    <person id="ped102" depart="936.77" type="ped_pedestrian">
        <walk from="-23519483#4" to="23521890#0"/>
    </person>
    <person id="ped103" depart="945.96" type="ped_pedestrian">
        <walk from="23519339" to="836685805#3"/>
    </person>
    <person id="ped104" depart="955.14" type="ped_pedestrian">
        <walk from="-252223483#5" to="934255650"/>
    </person>
    <person id="ped105" depart="964.33" type="ped_pedestrian">
        <walk from="-23520484#2" to="-272595409#4"/>
    </person>
    <person id="ped106" depart="973.51" type="ped_pedestrian">
        <walk from="23521917#1" to="272595409#1"/>
    </person>
    <person id="ped107" depart="982.70" type="ped_pedestrian">
        <walk from="-836685805#2" to="-23521917#5"/>
    </person>
    <person id="ped108" depart="991.88" type="ped_pedestrian">
        <walk from="838916319#0" to="-942162016"/>
    </person>
    <person id="ped109" depart="1001.06" type="ped_pedestrian">
        <walk from="23521917#0" to="252223483#0"/>
    </person>
    <person id="ped110" depart="1010.25" type="ped_pedestrian">
        <walk from="222412319#0" to="23521890#0"/>
    </person>
    <person id="ped111" depart="1019.43" type="ped_pedestrian">
        <walk from="23519706#8" to="838935825#1"/>
    </person>
    <person id="ped112" depart="1028.62" type="ped_pedestrian">
        <walk from="-282035194" to="556406342#1"/>
    </person>
    <person id="ped113" depart="1037.80" type="ped_pedestrian">
        <walk from="-836685805#3" to="222241951"/>
    </person>
    <person id="ped114" depart="1046.98" type="ped_pedestrian">
        <walk from="252223488" to="177077150#0"/>
    </person>
    <person id="ped115" depart="1056.17" type="ped_pedestrian">
        <walk from="-23520116#1" to="222976569#1"/>
    </person>
    <person id="ped116" depart="1065.35" type="ped_pedestrian">
        <walk from="951577159#2" to="951577159#1"/>
    </person>
    <person id="ped117" depart="1074.54" type="ped_pedestrian">
        <walk from="-23520116#1" to="-724187422#0"/>
    </person>
    <person id="ped118" depart="1083.72" type="ped_pedestrian">
        <walk from="177077138#2" to="838935825#1"/>
    </person>
    <person id="ped119" depart="1092.90" type="ped_pedestrian">
        <walk from="838882818#1" to="838882818#1"/>
    </person>
    <person id="ped120" depart="1102.09" type="ped_pedestrian">
        <walk from="221806189" to="-252223483#5"/>
    </person>
    <person id="ped121" depart="1111.27" type="ped_pedestrian">
        <walk from="836685800#0" to="282035194"/>
    </person>
    <person id="ped122" depart="1120.46" type="ped_pedestrian">
        <walk from="23521948" to="942162016"/>
    </person>
    <person id="ped123" depart="1129.64" type="ped_pedestrian">
        <walk from="252223483#8" to="-222412317#2"/>
    </person>
    <person id="ped124" depart="1138.82" type="ped_pedestrian">
        <walk from="252223486" to="838935826#0"/>
    </person>
    <person id="ped125" depart="1148.01" type="ped_pedestrian">
        <walk from="-252223483#0" to="-23521917#3"/>
    </person>
    <person id="ped126" depart="1157.19" type="ped_pedestrian">
        <walk from="-23521917#1" to="23520484#0"/>
    </person>
    <person id="ped127" depart="1166.38" type="ped_pedestrian">
        <walk from="177077138#3" to="23521917#3"/>
    </person>
    <person id="ped128" depart="1175.56" type="ped_pedestrian">
        <walk from="556406342#1" to="-282035194"/>
    </person>
    <person id="ped129" depart="1184.74" type="ped_pedestrian">
        <walk from="252223483#3" to="177077138#1"/>
    </person>
    <person id="ped130" depart="1193.93" type="ped_pedestrian">
        <walk from="23519159#0" to="838928073#0"/>
    </person>
    <person id="ped131" depart="1203.11" type="ped_pedestrian">
        <walk from="836685805#1" to="-23521107#0"/>
    </person>
    <person id="ped132" depart="1212.30" type="ped_pedestrian">
        <walk from="252223483#4" to="177077138#1"/>
    </person>
    <person id="ped133" depart="1221.48" type="ped_pedestrian">
        <walk from="596568238#0" to="23520230"/>
    </person>
    <person id="ped134" depart="1230.66" type="ped_pedestrian">
        <walk from="222412319#2" to="-222412317#2"/>
    </person>
    <person id="ped135" depart="1239.85" type="ped_pedestrian">
        <walk from="-23520116#1" to="838882819#0"/>
    </person>
    <person id="ped136" depart="1249.03" type="ped_pedestrian">
        <walk from="838916319#4" to="23520183"/>
    </person>
    <person id="ped137" depart="1258.22" type="ped_pedestrian">
        <walk from="836685800#0" to="23521696#2"/>
    </person>
    <person id="ped138" depart="1267.40" type="ped_pedestrian">
        <walk from="-252223483#3" to="-23540254"/>
    </person>
    <person id="ped139" depart="1276.59" type="ped_pedestrian">
        <walk from="755073152#1" to="838882816#0"/>
    </person>
    <person id="ped140" depart="1285.77" type="ped_pedestrian">
        <walk from="838916319#3" to="-600501526#1"/>
    </person>
    <person id="ped141" depart="1294.95" type="ped_pedestrian">
        <walk from="-942162016" to="-23521917#0"/>
    </person>
    <person id="ped142" depart="1304.14" type="ped_pedestrian">
        <walk from="724187420" to="838882819#0"/>
    </person>
    <person id="ped143" depart="1313.32" type="ped_pedestrian">
        <walk from="-252223483#4" to="838935825#0"/>
    </person>
    <person id="ped144" depart="1322.51" type="ped_pedestrian">
        <walk from="838882816#1" to="936923544#1"/>
    </person>
    <person id="ped145" depart="1331.69" type="ped_pedestrian">
        <walk from="790969620" to="838882818#1"/>
    </person>
    <person id="ped146" depart="1340.87" type="ped_pedestrian">
        <walk from="-23518788#0" to="596568237#1"/>
    </person>
    <person id="ped147" depart="1350.06" type="ped_pedestrian">
        <walk from="177077157#0" to="838935825#0"/>
    </person>
    <person id="ped148" depart="1359.24" type="ped_pedestrian">
        <walk from="755073154#0" to="838882816#1"/>
    </person>
    <person id="ped149" depart="1368.43" type="ped_pedestrian">
        <walk from="724187422#0" to="-23521917#1"/>
    </person>
    <person id="ped150" depart="1377.61" type="ped_pedestrian">
        <walk from="838882817#1" to="836685805#4"/>
    </person>
    <person id="ped151" depart="1386.79" type="ped_pedestrian">
        <walk from="-836685800#0" to="790969621"/>
    </person>
    <person id="ped152" depart="1395.98" type="ped_pedestrian">
        <walk from="222976569#2" to="177077150#1"/>
    </person>
    <person id="ped153" depart="1405.16" type="ped_pedestrian">
        <walk from="755073152#0" to="-836685800#2"/>
    </person>
    <person id="ped154" depart="1414.35" type="ped_pedestrian">
        <walk from="-23518788#0" to="-272595409#5"/>
    </person>
    <person id="ped155" depart="1423.53" type="ped_pedestrian">
        <walk from="936591676" to="177077138#5"/>
    </person>
    <person id="ped156" depart="1432.71" type="ped_pedestrian">
        <walk from="252223483#5" to="222243788"/>
    </person>
    <person id="ped157" depart="1441.90" type="ped_pedestrian">
        <walk from="936923544#3" to="23520116#1"/>
    </person>
    <person id="ped158" depart="1451.08" type="ped_pedestrian">
        <walk from="838935826#0" to="-23521917#3"/>
    </person>
    <person id="ped159" depart="1460.27" type="ped_pedestrian">
        <walk from="936591677" to="-272595409#2"/>
    </person>
    <person id="ped160" depart="1469.45" type="ped_pedestrian">
        <walk from="-23521917#1" to="222420360"/>
    </person>
    <person id="ped161" depart="1478.63" type="ped_pedestrian">
        <walk from="556406561#0" to="177077151"/>
    </person>
    <person id="ped162" depart="1487.82" type="ped_pedestrian">
        <walk from="23521917#5" to="23519483#3"/>
    </person>
    <person id="ped163" depart="1497.00" type="ped_pedestrian">
        <walk from="221922979" to="23521401#0"/>
    </person>
    <person id="ped164" depart="1506.19" type="ped_pedestrian">
        <walk from="1230254791" to="462785071"/>
    </person>
    <person id="ped165" depart="1515.37" type="ped_pedestrian">
        <walk from="-222412317#0" to="838928076#1"/>
    </person>
    <person id="ped166" depart="1524.56" type="ped_pedestrian">
        <walk from="23520142" to="556406342#1"/>
    </person>
    <person id="ped167" depart="1533.74" type="ped_pedestrian">
        <walk from="596568238#0" to="252223488"/>
    </person>
    <person id="ped168" depart="1542.92" type="ped_pedestrian">
        <walk from="221696627" to="-23519706#8"/>
    </person>
    <person id="ped169" depart="1552.11" type="ped_pedestrian">
        <walk from="252223486" to="177077157#0"/>
    </person>
    <person id="ped170" depart="1561.29" type="ped_pedestrian">
        <walk from="177077151" to="836685805#1"/>
    </person>
    <person id="ped171" depart="1570.48" type="ped_pedestrian">
        <walk from="556406343" to="177077150#0"/>
    </person>
    <person id="ped172" depart="1579.66" type="ped_pedestrian">
        <walk from="-23540254" to="222412319#0"/>
    </person>
    <person id="ped173" depart="1588.84" type="ped_pedestrian">
        <walk from="838935826#1" to="272595409#1"/>
    </person>
    <person id="ped174" depart="1598.03" type="ped_pedestrian">
        <walk from="838916319#4" to="252221727#3"/>
    </person>
    <person id="ped175" depart="1607.21" type="ped_pedestrian">
        <walk from="177077150#0" to="23520183"/>
    </person>
    <person id="ped176" depart="1616.40" type="ped_pedestrian">
        <walk from="222412320" to="23521696#2"/>
    </person>
    <person id="ped177" depart="1625.58" type="ped_pedestrian">
        <walk from="252223483#8" to="224703848#0"/>
    </person>
    <person id="ped178" depart="1634.76" type="ped_pedestrian">
        <walk from="222424917" to="-724187422#0"/>
    </person>
    <person id="ped179" depart="1643.95" type="ped_pedestrian">
        <walk from="23518788#0" to="838916319#3"/>
    </person>
    <person id="ped180" depart="1653.13" type="ped_pedestrian">
        <walk from="755073152#1" to="-252223483#8"/>
    </person>
    <person id="ped181" depart="1662.32" type="ped_pedestrian">
        <walk from="-23520814#0" to="23519483#4"/>
    </person>
    <person id="ped182" depart="1671.50" type="ped_pedestrian">
        <walk from="252223483#3" to="177077157#1"/>
    </person>
    <person id="ped183" depart="1680.68" type="ped_pedestrian">
        <walk from="795855558#0" to="596568239#3"/>
    </person>
    <person id="ped184" depart="1689.87" type="ped_pedestrian">
        <walk from="252223488" to="-836685800#1"/>
    </person>
    <person id="ped185" depart="1699.05" type="ped_pedestrian">
        <walk from="-272595409#7" to="-23518788#0"/>
    </person>
    <person id="ped186" depart="1708.24" type="ped_pedestrian">
        <walk from="-836685805#4" to="23518889#0"/>
    </person>
    <person id="ped187" depart="1717.42" type="ped_pedestrian">
        <walk from="836685805#2" to="-23520116#1"/>
    </person>
    <person id="ped188" depart="1726.60" type="ped_pedestrian">
        <walk from="222412318" to="252223483#2"/>
    </person>
    <person id="ped189" depart="1735.79" type="ped_pedestrian">
        <walk from="-272595409#6" to="272595409#6"/>
    </person>
    <person id="ped190" depart="1744.97" type="ped_pedestrian">
        <walk from="23519253" to="-836685805#4"/>
    </person>
    <person id="ped191" depart="1754.16" type="ped_pedestrian">
        <walk from="252223483#9" to="-222412317#1"/>
    </person>
    <person id="ped192" depart="1763.34" type="ped_pedestrian">
        <walk from="596568239#3" to="721779873"/>
    </person>
    <person id="ped193" depart="1772.52" type="ped_pedestrian">
        <walk from="-23521917#1" to="222412319#2"/>
    </person>
    <person id="ped194" depart="1781.71" type="ped_pedestrian">
        <walk from="-272595409#1" to="839220369#1"/>
    </person>
    <person id="ped195" depart="1790.89" type="ped_pedestrian">
        <walk from="23519483#4" to="-23519483#1"/>
    </person>
    <person id="ped196" depart="1800.08" type="ped_pedestrian">
        <walk from="-942162016" to="836685805#1"/>
    </person>
    <person id="ped197" depart="1809.26" type="ped_pedestrian">
        <walk from="222976569#1" to="755073154#0"/>
    </person>
    <person id="ped198" depart="1818.45" type="ped_pedestrian">
        <walk from="252223487" to="942162016"/>
    </person>
    <person id="ped199" depart="1827.63" type="ped_pedestrian">
        <walk from="23521917#1" to="839220368#1"/>
    </person>
    <person id="ped200" depart="1836.81" type="ped_pedestrian">
        <walk from="838916319#0" to="23521948"/>
    </person>
    <person id="ped201" depart="1846.00" type="ped_pedestrian">
        <walk from="556406342#1" to="23519483#0"/>
    </person>
    <person id="ped202" depart="1855.18" type="ped_pedestrian">
        <walk from="795855559#1" to="23520183"/>
    </person>
    <person id="ped203" depart="1864.37" type="ped_pedestrian">
        <walk from="838916319#1" to="596568239#1"/>
    </person>
    <person id="ped204" depart="1873.55" type="ped_pedestrian">
        <walk from="23518889#0" to="177077138#0"/>
    </person>
    <person id="ped205" depart="1882.73" type="ped_pedestrian">
        <walk from="-942162016" to="252223483#4"/>
    </person>
    <person id="ped206" depart="1891.92" type="ped_pedestrian">
        <walk from="721779678" to="23519582#1"/>
    </person>
    <person id="ped207" depart="1901.10" type="ped_pedestrian">
        <walk from="252223483#12" to="177077138#4"/>
    </person>
    <person id="ped208" depart="1910.29" type="ped_pedestrian">
        <walk from="-23520484#0" to="177077140"/>
    </person>
    <person id="ped209" depart="1919.47" type="ped_pedestrian">
        <walk from="177077138#3" to="177077152#1"/>
    </person>
    <person id="ped210" depart="1928.65" type="ped_pedestrian">
        <walk from="23520142" to="-252223483#1"/>
    </person>
    <person id="ped211" depart="1937.84" type="ped_pedestrian">
        <walk from="-836685805#1" to="272595409#6"/>
    </person>
    <person id="ped212" depart="1947.02" type="ped_pedestrian">
        <walk from="461341755" to="-23519582#1"/>
    </person>
    <person id="ped213" depart="1956.21" type="ped_pedestrian">
        <walk from="222412317#1" to="23520170"/>
    </person>
    <person id="ped214" depart="1965.39" type="ped_pedestrian">
        <walk from="222412318" to="-596568238#0"/>
    </person>
    <person id="ped215" depart="1974.57" type="ped_pedestrian">
        <walk from="222412319#0" to="838916319#4"/>
    </person>
    <person id="ped216" depart="1983.76" type="ped_pedestrian">
        <walk from="23521890#0" to="272595409#6"/>
    </person>
    <person id="ped217" depart="1992.94" type="ped_pedestrian">
        <walk from="836685805#4" to="721779678"/>
    </person>
    <person id="ped218" depart="2002.13" type="ped_pedestrian">
        <walk from="221922978" to="-222412317#1"/>
    </person>
    <person id="ped219" depart="2011.31" type="ped_pedestrian">
        <walk from="836685805#3" to="839220369#0"/>
    </person>
    <person id="ped220" depart="2020.49" type="ped_pedestrian">
        <walk from="222412319#0" to="596568239#2"/>
    </person>
    <person id="ped221" depart="2029.68" type="ped_pedestrian">
        <walk from="23520183" to="23521917#3"/>
    </person>
    <person id="ped222" depart="2038.86" type="ped_pedestrian">
        <walk from="-836685800#0" to="-724187422#1"/>
    </person>