<?xml version="1.0" encoding="UTF-8"?>

<!-- generated on 2024-08-23 21:13:45.848194 by randomTrips.py v1_18_0+0000-03ecfdea036
<configuration>
    <net-file value="osm.net.xml.gz"/>
    <output-trip-file value="osm.motorcycle.trips.xml"/>
    <route-file value="osm.motorcycle.rou.xml"/>
    <prefix value="motorcycle"/>
    <trip-attributes value="departLane=&quot;best&quot;"/>
    <fringe-start-attributes value="departSpeed=&quot;max&quot;"/>
    <vehicle-class value="motorcycle"/>
    <fringe-factor value="2"/>
    <vclass value="motorcycle"/>
    <via-edge-types value="highway.motorway,highway.motorway_link,highway.trunk_link,highway.primary_link,highway.secondary_link,highway.tertiary_link"/>
    <max-distance value="1200.0"/>
    <remove-loops value="True"/>
    <validate value="True"/>
    <insertion-density value="4.0"/>
</configuration>
-->

<!-- generated on 2024-08-23 21:13:45 by Eclipse SUMO duarouter Version 1.18.0
<configuration xmlns:xsi="http://www.w3.org/2001/XMLSchema-instance" xsi:noNamespaceSchemaLocation="http://sumo.dlr.de/xsd/duarouterConfiguration.xsd">

    <input>
        <net-file value="osm.net.xml.gz"/>
        <route-files value="osm.motorcycle.trips.xml"/>
    </input>

    <output>
        <output-file value="osm.motorcycle.trips.xml.tmp"/>
        <alternatives-output value="NUL"/>
        <write-trips value="true"/>
    </output>

    <processing>
        <remove-loops value="true"/>
    </processing>

    <time>
        <begin value="0.0"/>
        <end value="3600.0"/>
    </time>

    <report>
        <no-warnings value="true"/>
        <ignore-errors value="true"/>
        <no-step-log value="true"/>
    </report>

</configuration>
-->

<routes xmlns:xsi="http://www.w3.org/2001/XMLSchema-instance" xsi:noNamespaceSchemaLocation="http://sumo.dlr.de/xsd/routes_file.xsd">
    <vType id="motorcycle_motorcycle" vClass="motorcycle"/>
    <trip id="motorcycle0" type="motorcycle_motorcycle" depart="0.00" departLane="best" from="-23519660#1" to="-23518788#10"/>
    <trip id="motorcycle1" type="motorcycle_motorcycle" depart="7.18" departLane="best" from="23520535#1" to="23520374#2"/>
    <trip id="motorcycle2" type="motorcycle_motorcycle" depart="14.37" departLane="best" from="272595409#3" to="-23519204#0"/>
    <trip id="motorcycle3" type="motorcycle_motorcycle" depart="21.55" departLane="best" from="23520448#4" to="23518978#0"/>
    <trip id="motorcycle4" type="motorcycle_motorcycle" depart="28.74" departLane="best" from="-23518788#1" to="-23520349#2"/>
    <trip id="motorcycle5" type="motorcycle_motorcycle" depart="35.92" departLane="best" from="23519706#3" to="23519173#0"/>
    <trip id="motorcycle6" type="motorcycle_motorcycle" depart="43.11" departLane="best" from="-23520484#0" to="23519584"/>
    <trip id="motorcycle7" type="motorcycle_motorcycle" depart="50.29" departLane="best" from="-23521401#2" to="-188701944#0"/>
    <trip id="motorcycle8" type="motorcycle_motorcycle" depart="57.48" departLane="best" from="-23521401#10" to="23520628"/>
    <trip id="motorcycle9" type="motorcycle_motorcycle" depart="64.66" departLane="best" from="23521920" to="23519740"/>
    <trip id="motorcycle10" type="motorcycle_motorcycle" depart="71.85" departLane="best" from="-836685800#1" to="23522098#2"/>
    <trip id="motorcycle11" type="motorcycle_motorcycle" depart="79.03" departLane="best" from="23521979" to="-23519706#3"/>
    <trip id="motorcycle12" type="motorcycle_motorcycle" depart="86.22" departLane="best" from="23518846#1" to="838886529"/>
    <trip id="motorcycle13" type="motorcycle_motorcycle" depart="93.40" departLane="best" from="-252223483#1" to="23519204#5"/>
    <trip id="motorcycle14" type="motorcycle_motorcycle" depart="100.59" departLane="best" from="-23521743#2" to="23519762"/>
    <trip id="motorcycle15" type="motorcycle_motorcycle" depart="107.77" departLane="best" from="23522098#2" to="23519479#2"/>
    <trip id="motorcycle16" type="motorcycle_motorcycle" depart="114.95" departLane="best" from="23520170" to="-23518959#1"/>
    <trip id="motorcycle17" type="motorcycle_motorcycle" depart="122.14" departLane="best" departSpeed="max" from="-23519103#2" to="-23520851"/>
    <trip id="motorcycle18" type="motorcycle_motorcycle" depart="129.32" departLane="best" from="23519593" to="-272595409#2"/>
    <trip id="motorcycle19" type="motorcycle_motorcycle" depart="136.51" departLane="best" from="23519706#1" to="23519717#0"/>
    <trip id="motorcycle20" type="motorcycle_motorcycle" depart="143.69" departLane="best" from="-23519854#6" to="23520967#3"/>
    <trip id="motorcycle21" type="motorcycle_motorcycle" depart="150.88" departLane="best" departSpeed="max" from="-23519846" to="-596568238#0"/>
    <trip id="motorcycle22" type="motorcycle_motorcycle" depart="158.06" departLane="best" from="23519006#0" to="-23520448#4"/>
    <trip id="motorcycle23" type="motorcycle_motorcycle" depart="165.25" departLane="best" from="23521917#2" to="23521401#7"/>
    <trip id="motorcycle24" type="motorcycle_motorcycle" depart="172.43" departLane="best" from="-23520374#1" to="601444719#1"/>
    <trip id="motorcycle25" type="motorcycle_motorcycle" depart="179.62" departLane="best" from="252223483#0" to="-23521904#4"/>
    <trip id="motorcycle26" type="motorcycle_motorcycle" depart="186.80" departLane="best" from="596568240#0" to="-193054993"/>
    <trip id="motorcycle27" type="motorcycle_motorcycle" depart="193.99" departLane="best" from="23520999#4" to="23520967#3"/>
    <trip id="motorcycle28" type="motorcycle_motorcycle" depart="201.17" departLane="best" from="23519024#2" to="23521107#1"/>
    <trip id="motorcycle29" type="motorcycle_motorcycle" depart="208.35" departLane="best" from="23519159#1" to="599998851"/>
    <trip id="motorcycle30" type="motorcycle_motorcycle" depart="215.54" departLane="best" from="-291263584#2" to="23520535#0"/>
    <trip id="motorcycle31" type="motorcycle_motorcycle" depart="222.72" departLane="best" departSpeed="max" from="942162016" to="23519006#2"/>
    <trip id="motorcycle32" type="motorcycle_motorcycle" depart="229.91" departLane="best" from="-23519173#1" to="-23518959#2"/>
    <trip id="motorcycle33" type="motorcycle_motorcycle" depart="237.09" departLane="best" from="-23519259" to="-23519854#3"/>
    <trip id="motorcycle34" type="motorcycle_motorcycle" depart="244.28" departLane="best" departSpeed="max" from="23521181" to="-838886530#2"/>
    <trip id="motorcycle35" type="motorcycle_motorcycle" depart="251.46" departLane="best" departSpeed="max" from="-23519025" to="-600015262#0"/>
    <trip id="motorcycle36" type="motorcycle_motorcycle" depart="258.65" departLane="best" from="936923544#3" to="-23519061#2"/>
    <trip id="motorcycle37" type="motorcycle_motorcycle" depart="265.83" departLane="best" from="202497034" to="23520886#0"/>
    <trip id="motorcycle38" type="motorcycle_motorcycle" depart="273.02" departLane="best" from="-23519377" to="-902581873"/>
    <trip id="motorcycle40" type="motorcycle_motorcycle" depart="287.39" departLane="best" from="-23521049#0" to="23519080"/>
    <trip id="motorcycle41" type="motorcycle_motorcycle" depart="294.57" departLane="best" from="252223483#2" to="23522052#0"/>
    <trip id="motorcycle42" type="motorcycle_motorcycle" depart="301.76" departLane="best" from="-23519041#2" to="23521317"/>
    <trip id="motorcycle43" type="motorcycle_motorcycle" depart="308.94" departLane="best" from="-23520967#2" to="-23519582#1"/>
    <trip id="motorcycle44" type="motorcycle_motorcycle" depart="316.12" departLane="best" from="23520999#4" to="272595409#5"/>
    <trip id="motorcycle45" type="motorcycle_motorcycle" depart="323.31" departLane="best" from="-23518889#2" to="23520967#4"/>
    <trip id="motorcycle46" type="motorcycle_motorcycle" depart="330.49" departLane="best" from="600501526#1" to="23519032"/>
    <trip id="motorcycle47" type="motorcycle_motorcycle" depart="337.68" departLane="best" from="-23519483#1" to="-23520619"/>
    <trip id="motorcycle48" type="motorcycle_motorcycle" depart="344.86" departLane="best" from="-23521917#3" to="-23519582#1"/>
    <trip id="motorcycle49" type="motorcycle_motorcycle" depart="352.05" departLane="best" from="-23519041#4" to="23519858"/>
    <trip id="motorcycle50" type="motorcycle_motorcycle" depart="359.23" departLane="best" departSpeed="max" from="-23520565" to="600015258"/>
    <trip id="motorcycle51" type="motorcycle_motorcycle" depart="366.42" departLane="best" from="23522098#0" to="23519061#1"/>
    <trip id="motorcycle52" type="motorcycle_motorcycle" depart="373.60" departLane="best" from="23520410#0" to="23519660#1"/>
    <trip id="motorcycle53" type="motorcycle_motorcycle" depart="380.79" departLane="best" from="-838882824" to="23521579"/>
    <trip id="motorcycle54" type="motorcycle_motorcycle" depart="387.97" departLane="best" from="838919378" to="-23519229#0"/>
    <trip id="motorcycle55" type="motorcycle_motorcycle" depart="395.16" departLane="best" from="421435711#0" to="-23522103"/>
    <trip id="motorcycle56" type="motorcycle_motorcycle" depart="402.34" departLane="best" from="23522098#2" to="-23520994"/>
    <trip id="motorcycle57" type="motorcycle_motorcycle" depart="409.53" departLane="best" departSpeed="max" from="-600098316" to="23521401#0"/>
    <trip id="motorcycle58" type="motorcycle_motorcycle" depart="416.71" departLane="best" from="23518959#3" to="-23518974#1"/>
    <trip id="motorcycle59" type="motorcycle_motorcycle" depart="423.89" departLane="best" from="942212143" to="23522086#1"/>
    <trip id="motorcycle60" type="motorcycle_motorcycle" depart="431.08" departLane="best" from="23521995" to="23519854#6"/>
    <trip id="motorcycle61" type="motorcycle_motorcycle" depart="438.26" departLane="best" from="-838919379#1" to="-23520448#4"/>
    <trip id="motorcycle62" type="motorcycle_motorcycle" depart="445.45" departLane="best" from="-291263584#3" to="-23519024#1"/>
    <trip id="motorcycle63" type="motorcycle_motorcycle" depart="452.63" departLane="best" from="-23520999#4" to="23521579"/>
    <trip id="motorcycle64" type="motorcycle_motorcycle" depart="459.82" departLane="best" from="-836685800#1" to="936923544#0"/>
    <trip id="motorcycle65" type="motorcycle_motorcycle" depart="467.00" departLane="best" from="-23518978#1" to="-23520880#1"/>
    <trip id="motorcycle66" type="motorcycle_motorcycle" depart="474.19" departLane="best" from="838886530#0" to="23519483#1"/>
    <trip id="motorcycle67" type="motorcycle_motorcycle" depart="481.37" departLane="best" from="-188701943" to="-252223483#0"/>
    <trip id="motorcycle68" type="motorcycle_motorcycle" depart="488.56" departLane="best" from="-23519724#1" to="836685800#1"/>
    <trip id="motorcycle69" type="motorcycle_motorcycle" depart="495.74" departLane="best" departSpeed="max" from="-23519103#2" to="-23520116#0"/>
    <trip id="motorcycle70" type="motorcycle_motorcycle" depart="502.93" departLane="best" from="23519204#5" to="23520374#1"/>
    <trip id="motorcycle71" type="motorcycle_motorcycle" depart="510.11" departLane="best" from="-23520658#1" to="-23519500#0"/>
    <trip id="motorcycle72" type="motorcycle_motorcycle" depart="517.29" departLane="best" from="272595409#1" to="-23520967#2"/>
    <trip id="motorcycle73" type="motorcycle_motorcycle" depart="524.48" departLane="best" from="23519204#5" to="23519775"/>
    <trip id="motorcycle74" type="motorcycle_motorcycle" depart="531.66" departLane="best" departSpeed="max" from="-600074311" to="-23519521"/>
    <trip id="motorcycle75" type="motorcycle_motorcycle" depart="538.85" departLane="best" from="23518788#1" to="600554931"/>
    <trip id="motorcycle76" type="motorcycle_motorcycle" depart="546.03" departLane="best" from="-23520349#2" to="23520868"/>
    <trip id="motorcycle77" type="motorcycle_motorcycle" depart="553.22" departLane="best" from="23519854#3" to="23521708"/>
    <trip id="motorcycle78" type="motorcycle_motorcycle" depart="560.40" departLane="best" from="23521696#2" to="23521166"/>
    <trip id="motorcycle79" type="motorcycle_motorcycle" depart="567.59" departLane="best" from="23519056" to="193054993"/>
    <trip id="motorcycle80" type="motorcycle_motorcycle" depart="574.77" departLane="best" from="942192617" to="936923544#1"/>
    <trip id="motorcycle81" type="motorcycle_motorcycle" depart="581.96" departLane="best" from="-23519061#0" to="-23520448#3"/>
    <trip id="motorcycle82" type="motorcycle_motorcycle" depart="589.14" departLane="best" from="23520999#4" to="-600554930#2"/>
    <trip id="motorcycle83" type="motorcycle_motorcycle" depart="596.33" departLane="best" from="252223483#4" to="291263584#3"/>
    <trip id="motorcycle84" type="motorcycle_motorcycle" depart="603.51" departLane="best" from="243777837#0" to="-23519762"/>
    <trip id="motorcycle85" type="motorcycle_motorcycle" depart="610.70" departLane="best" from="-23521823#2" to="-23520692"/>
    <trip id="motorcycle86" type="motorcycle_motorcycle" depart="617.88" departLane="best" from="23519391#1" to="838919069#2"/>
    <trip id="motorcycle87" type="motorcycle_motorcycle" depart="625.06" departLane="best" from="23519706#8" to="-188701944#0"/>
    <trip id="motorcycle88" type="motorcycle_motorcycle" depart="632.25" departLane="best" from="-23519660#0" to="-23519479#2"/>
    <trip id="motorcycle89" type="motorcycle_motorcycle" depart="639.43" departLane="best" from="-23519241" to="23519204#6"/>
    <trip id="motorcycle90" type="motorcycle_motorcycle" depart="646.62" departLane="best" from="23521101#1" to="23519706#4"/>
    <trip id="motorcycle91" type="motorcycle_motorcycle" depart="653.80" departLane="best" from="23520374#0" to="-23520374#0"/>
    <trip id="motorcycle92" type="motorcycle_motorcycle" depart="660.99" departLane="best" departSpeed="max" from="-918137127#1" to="600015258"/>
    <trip id="motorcycle93" type="motorcycle_motorcycle" depart="668.17" departLane="best" from="23521920" to="-23519204#6"/>
    <trip id="motorcycle94" type="motorcycle_motorcycle" depart="675.36" departLane="best" departSpeed="max" from="-600105458" to="-23521332#3"/>
    <trip id="motorcycle95" type="motorcycle_motorcycle" depart="682.54" departLane="best" from="118670827" to="23521401#14"/>
    <trip id="motorcycle96" type="motorcycle_motorcycle" depart="689.73" departLane="best" from="23520628" to="23519204#4"/>
    <trip id="motorcycle97" type="motorcycle_motorcycle" depart="696.91" departLane="best" departSpeed="max" from="-600129474" to="-193054992"/>
    <trip id="motorcycle98" type="motorcycle_motorcycle" depart="704.10" departLane="best" from="23519061#2" to="596568229"/>
    <trip id="motorcycle99" type="motorcycle_motorcycle" depart="711.28" departLane="best" from="421435711#0" to="23519173#0"/>
    <trip id="motorcycle100" type="motorcycle_motorcycle" depart="718.47" departLane="best" departSpeed="max" from="-23521520" to="599998853"/>
    <trip id="motorcycle101" type="motorcycle_motorcycle" depart="725.65" departLane="best" from="23521239" to="-252223483#8"/>
    <trip id="motorcycle102" type="motorcycle_motorcycle" depart="732.83" departLane="best" from="-291263584#1" to="-23520448#0"/>
    <trip id="motorcycle103" type="motorcycle_motorcycle" depart="740.02" departLane="best" from="-23520886#0" to="-23519257"/>
    <trip id="motorcycle104" type="motorcycle_motorcycle" depart="747.20" departLane="best" from="-23521049#1" to="596568237#1"/>
    <trip id="motorcycle105" type="motorcycle_motorcycle" depart="754.39" departLane="best" departSpeed="max" from="-599998850" to="23519837#0"/>
    <trip id="motorcycle106" type="motorcycle_motorcycle" depart="761.57" departLane="best" from="-23519717#3" to="-600501527#2"/>
    <trip id="motorcycle107" type="motorcycle_motorcycle" depart="768.76" departLane="best" from="23522126" to="838886530#2"/>
    <trip id="motorcycle108" type="motorcycle_motorcycle" depart="775.94" departLane="best" from="-23521401#6" to="-421435711#1"/>
    <trip id="motorcycle109" type="motorcycle_motorcycle" depart="783.13" departLane="best" from="-23518788#0" to="-23520999#3"/>
    <trip id="motorcycle110" type="motorcycle_motorcycle" depart="790.31" departLane="best" from="23521356" to="252223487"/>
    <trip id="motorcycle111" type="motorcycle_motorcycle" depart="797.50" departLane="best" from="-23521401#6" to="23521185#0"/>
    <trip id="motorcycle112" type="motorcycle_motorcycle" depart="804.68" departLane="best" from="23521120" to="23519391#2"/>
    <trip id="motorcycle113" type="motorcycle_motorcycle" depart="811.87" departLane="best" from="-23520484#2" to="23521917#5"/>
    <trip id="motorcycle114" type="motorcycle_motorcycle" depart="819.05" departLane="best" departSpeed="max" from="-760083149#1" to="-23521750"/>
    <trip id="motorcycle115" type="motorcycle_motorcycle" depart="826.24" departLane="best" departSpeed="max" from="23521217" to="23520658#0"/>
    <trip id="motorcycle116" type="motorcycle_motorcycle" depart="833.42" departLane="best" from="-838885129" to="23521401#0"/>
    <trip id="motorcycle117" type="motorcycle_motorcycle" depart="840.60" departLane="best" from="23519667#1" to="-600554930#2"/>
    <trip id="motorcycle118" type="motorcycle_motorcycle" depart="847.79" departLane="best" from="-838919069#1" to="23519131#1"/>
    <trip id="motorcycle119" type="motorcycle_motorcycle" depart="854.97" departLane="best" departSpeed="max" from="600619635#0" to="23519479#2"/>
    <trip id="motorcycle120" type="motorcycle_motorcycle" depart="862.16" departLane="best" from="-836685805#2" to="-23521181"/>
    <trip id="motorcycle121" type="motorcycle_motorcycle" depart="869.34" departLane="best" from="-23519257" to="-902581873"/>
    <trip id="motorcycle122" type="motorcycle_motorcycle" depart="876.53" departLane="best" from="23520448#3" to="-23521904#3"/>
    <trip id="motorcycle123" type="motorcycle_motorcycle" depart="883.71" departLane="best" from="23519257" to="-23519024#1"/>
    <trip id="motorcycle124" type="motorcycle_motorcycle" depart="890.90" departLane="best" from="252223483#7" to="-23519479#1"/>
    <trip id="motorcycle125" type="motorcycle_motorcycle" depart="898.08" departLane="best" departSpeed="max" from="-1060925382" to="600485241"/>
    <trip id="motorcycle126" type="motorcycle_motorcycle" depart="905.27" departLane="best" from="-23518889#1" to="23520880#2"/>
    <trip id="motorcycle127" type="motorcycle_motorcycle" depart="912.45" departLane="best" from="-23522098#3" to="23519061#0"/>
    <trip id="motorcycle128" type="motorcycle_motorcycle" depart="919.64" departLane="best" from="-23519762" to="-23522056"/>
    <trip id="motorcycle129" type="motorcycle_motorcycle" depart="926.82" departLane="best" from="-23521668" to="25055326#0"/>
    <trip id="motorcycle130" type="motorcycle_motorcycle" depart="934.00" departLane="best" from="23520374#2" to="23521737#0"/>
    <trip id="motorcycle131" type="motorcycle_motorcycle" depart="941.19" departLane="best" from="-23521401#7" to="23519204#0"/>
    <trip id="motorcycle132" type="motorcycle_motorcycle" depart="948.37" departLane="best" departSpeed="max" from="-1060925382" to="23521401#7"/>
    <trip id="motorcycle133" type="motorcycle_motorcycle" depart="955.56" departLane="best" departSpeed="max" from="-600137408" to="23519483#3"/>
    <trip id="motorcycle134" type="motorcycle_motorcycle" depart="962.74" departLane="best" from="600537837#1" to="23520448#4"/>
    <trip id="motorcycle135" type="motorcycle_motorcycle" depart="969.93" departLane="best" from="-838882824" to="599998854"/>
    <trip id="motorcycle136" type="motorcycle_motorcycle" depart="977.11" departLane="best" from="-23519156#1" to="23519024#5"/>
    <trip id="motorcycle137" type="motorcycle_motorcycle" depart="984.30" departLane="best" departSpeed="max" from="23519582#0" to="23522098#1"/>
    <trip id="motorcycle138" type="motorcycle_motorcycle" depart="991.48" departLane="best" from="-23521598" to="23521166"/>
    <trip id="motorcycle139" type="motorcycle_motorcycle" depart="998.67" departLane="best" from="23519854#4" to="23520619"/>
    <trip id="motorcycle140" type="motorcycle_motorcycle" depart="1005.85" departLane="best" from="-23520136" to="-23518788#1"/>
    <trip id="motorcycle141" type="motorcycle_motorcycle" depart="1013.04" departLane="best" from="23522020" to="23519061#3"/>
    <trip id="motorcycle142" type="motorcycle_motorcycle" depart="1020.22" departLane="best" departSpeed="max" from="-599998855" to="23519854#6"/>
    <trip id="motorcycle143" type="motorcycle_motorcycle" depart="1027.41" departLane="best" from="23519717#1" to="188701943"/>
    <trip id="motorcycle144" type="motorcycle_motorcycle" depart="1034.59" departLane="best" from="-23518777#1" to="23518974#1"/>
    <trip id="motorcycle145" type="motorcycle_motorcycle" depart="1041.77" departLane="best" from="-23520886#0" to="25055326#0"/>
    <trip id="motorcycle147" type="motorcycle_motorcycle" depart="1056.14" departLane="best" from="272595409#2" to="-23519717#4"/>
    <trip id="motorcycle148" type="motorcycle_motorcycle" depart="1063.33" departLane="best" from="23520374#2" to="23518978#0"/>
    <trip id="motorcycle149" type="motorcycle_motorcycle" depart="1070.51" departLane="best" from="23521750" to="-23519204#0"/>
    <trip id="motorcycle150" type="motorcycle_motorcycle" depart="1077.70" departLane="best" from="282035194" to="23521063#1"/>
    <trip id="motorcycle151" type="motorcycle_motorcycle" depart="1084.88" departLane="best" from="838886530#0" to="23521101#0"/>
    <trip id="motorcycle152" type="motorcycle_motorcycle" depart="1092.07" departLane="best" from="-23520880#0" to="23519918"/>
    <trip id="motorcycle153" type="motorcycle_motorcycle" depart="1099.25" departLane="best" from="-23520967#2" to="23519041#2"/>
    <trip id="motorcycle154" type="motorcycle_motorcycle" depart="1106.44" departLane="best" from="23519507" to="-23521332#0"/>
    <trip id="motorcycle155" type="motorcycle_motorcycle" depart="1113.62" departLane="best" from="-23519080" to="23521401#6"/>
    <trip id="motorcycle156" type="motorcycle_motorcycle" depart="1120.81" departLane="best" from="-23521101#0" to="-23521917#5"/>
    <trip id="motorcycle157" type="motorcycle_motorcycle" depart="1127.99" departLane="best" from="23520619" to="23520563#1"/>
    <trip id="motorcycle158" type="motorcycle_motorcycle" depart="1135.18" departLane="best" departSpeed="max" from="23520207" to="-23519041#1"/>
    <trip id="motorcycle159" type="motorcycle_motorcycle" depart="1142.36" departLane="best" departSpeed="max" from="-599998851" to="23519159#3"/>
    <trip id="motorcycle160" type="motorcycle_motorcycle" depart="1149.54" departLane="best" departSpeed="max" from="-600015258" to="-23520374#3"/>
    <trip id="motorcycle161" type="motorcycle_motorcycle" depart="1156.73" departLane="best" departSpeed="max" from="-600074311" to="600015258"/>
    <trip id="motorcycle162" type="motorcycle_motorcycle" depart="1163.91" departLane="best" from="-836685805#1" to="23520565"/>
    <trip id="motorcycle163" type="motorcycle_motorcycle" depart="1171.10" departLane="best" from="-23522086#0" to="-23521401#0"/>
    <trip id="motorcycle164" type="motorcycle_motorcycle" depart="1178.28" departLane="best" from="-252223483#2" to="188701943"/>
    <trip id="motorcycle165" type="motorcycle_motorcycle" depart="1185.47" departLane="best" departSpeed="max" from="-23522037#1" to="23521172#0"/>
    <trip id="motorcycle166" type="motorcycle_motorcycle" depart="1192.65" departLane="best" departSpeed="max" from="-600074311" to="23521107#0"/>
    <trip id="motorcycle167" type="motorcycle_motorcycle" depart="1199.84" departLane="best" from="-23518926#3" to="-23519706#3"/>
    <trip id="motorcycle168" type="motorcycle_motorcycle" depart="1207.02" departLane="best" from="-23520484#0" to="-23520535#0"/>
    <trip id="motorcycle169" type="motorcycle_motorcycle" depart="1214.21" departLane="best" departSpeed="max" from="-600483610#2" to="23518788#5"/>
    <trip id="motorcycle170" type="motorcycle_motorcycle" depart="1221.39" departLane="best" from="23521917#1" to="-23520410#1"/>
    <trip id="motorcycle171" type="motorcycle_motorcycle" depart="1228.58" departLane="best" from="-596568238#0" to="-23519854#4"/>
    <trip id="motorcycle172" type="motorcycle_motorcycle" depart="1235.76" departLane="best" from="-836685802#0" to="-23519582#0"/>
    <trip id="motorcycle173" type="motorcycle_motorcycle" depart="1242.94" departLane="best" from="-272595409#5" to="23519259"/>
    <trip id="motorcycle174" type="motorcycle_motorcycle" depart="1250.13" departLane="best" from="-23519667#0" to="20300056#2"/>
    <trip id="motorcycle175" type="motorcycle_motorcycle" depart="1257.31" departLane="best" from="-23518974#0" to="-596568238#0"/>
    <trip id="motorcycle176" type="motorcycle_motorcycle" depart="1264.50" departLane="best" from="-23520374#2" to="-23522041"/>
    <trip id="motorcycle177" type="motorcycle_motorcycle" depart="1271.68" departLane="best" from="-23520886#4" to="-596568238#0"/>
    <trip id="motorcycle178" type="motorcycle_motorcycle" depart="1278.87" departLane="best" from="-23520886#3" to="-23519159#0"/>
    <trip id="motorcycle180" type="motorcycle_motorcycle" depart="1293.24" departLane="best" from="-23519706#3" to="23521470"/>
    <trip id="motorcycle181" type="motorcycle_motorcycle" depart="1300.42" departLane="best" from="-23519706#5" to="23521172#1"/>
    <trip id="motorcycle182" type="motorcycle_motorcycle" depart="1307.61" departLane="best" from="724187422#1" to="-23520349#3"/>
    <trip id="motorcycle183" type="motorcycle_motorcycle" depart="1314.79" departLane="best" from="-23519508" to="23520349#2"/>
    <trip id="motorcycle184" type="motorcycle_motorcycle" depart="1321.98" departLane="best" from="-23519024#4" to="23520484#2"/>
    <trip id="motorcycle185" type="motorcycle_motorcycle" depart="1329.16" departLane="best" from="23519854#3" to="23519706#7"/>
    <trip id="motorcycle186" type="motorcycle_motorcycle" depart="1336.35" departLane="best" from="23520783#1" to="23519479#1"/>
    <trip id="motorcycle187" type="motorcycle_motorcycle" depart="1343.53" departLane="best" from="23519257" to="-23518788#11"/>
    <trip id="motorcycle188" type="motorcycle_motorcycle" depart="1350.71" departLane="best" from="23520349#5" to="-23519131#0"/>
    <trip id="motorcycle189" type="motorcycle_motorcycle" depart="1357.90" departLane="best" from="23520038" to="23519854#3"/>
    <trip id="motorcycle190" type="motorcycle_motorcycle" depart="1365.08" departLane="best" from="-23519206" to="23521401#14"/>
    <trip id="motorcycle191" type="motorcycle_motorcycle" depart="1372.27" departLane="best" from="-23522023#0" to="23519706#0"/>
    <trip id="motorcycle192" type="motorcycle_motorcycle" depart="1379.45" departLane="best" from="-23519483#1" to="838919067#1"/>
    <trip id="motorcycle193" type="motorcycle_motorcycle" depart="1386.64" departLane="best" from="23521086" to="25055326#1"/>
    <trip id="motorcycle194" type="motorcycle_motorcycle" depart="1393.82" departLane="best" departSpeed="max" from="-600129474" to="-291263584#0"/>
    <trip id="motorcycle195" type="motorcycle_motorcycle" depart="1401.01" departLane="best" from="188701944#1" to="23519339"/>
    <trip id="motorcycle196" type="motorcycle_motorcycle" depart="1408.19" departLane="best" from="23522020" to="23521997"/>
    <trip id="motorcycle197" type="motorcycle_motorcycle" depart="1415.38" departLane="best" from="-23519229#2" to="836685800#1"/>
    <trip id="motorcycle198" type="motorcycle_motorcycle" depart="1422.56" departLane="best" from="23519593" to="23522037#1"/>
    <trip id="motorcycle199" type="motorcycle_motorcycle" depart="1429.75" departLane="best" departSpeed="max" from="23520207" to="-905683903"/>
    <trip id="motorcycle200" type="motorcycle_motorcycle" depart="1436.93" departLane="best" departSpeed="max" from="-23521049#2" to="23521881"/>
    <trip id="motorcycle201" type="motorcycle_motorcycle" depart="1444.12" departLane="best" from="-23518889#1" to="-23518788#9"/>
    <trip id="motorcycle202" type="motorcycle_motorcycle" depart="1451.30" departLane="best" from="23521793" to="-23519173#2"/>
    <trip id="motorcycle203" type="motorcycle_motorcycle" depart="1458.48" departLane="best" from="252223483#5" to="23520967#0"/>
    <trip id="motorcycle204" type="motorcycle_motorcycle" depart="1465.67" departLane="best" from="-836685801#0" to="-23519717#1"/>
    <trip id="motorcycle205" type="motorcycle_motorcycle" depart="1472.85" departLane="best" from="252223483#1" to="23518788#5"/>
    <trip id="motorcycle206" type="motorcycle_motorcycle" depart="1480.04" departLane="best" from="-23522037#0" to="-23520062"/>
    <trip id="motorcycle207" type="motorcycle_motorcycle" depart="1487.22" departLane="best" from="23520374#2" to="-243777837#2"/>
    <trip id="motorcycle208" type="motorcycle_motorcycle" depart="1494.41" departLane="best" from="-23521920" to="-376034362"/>
    <trip id="motorcycle209" type="motorcycle_motorcycle" depart="1501.59" departLane="best" departSpeed="max" from="23520134#0" to="23521332#2"/>
    <trip id="motorcycle210" type="motorcycle_motorcycle" depart="1508.78" departLane="best" from="193054993" to="724184067"/>
    <trip id="motorcycle211" type="motorcycle_motorcycle" depart="1515.96" departLane="best" from="-23519156#2" to="-23520886#0"/>
    <trip id="motorcycle212" type="motorcycle_motorcycle" depart="1523.15" departLane="best" departSpeed="max" from="-918137127#1" to="23521287#1"/>
    <trip id="motorcycle213" type="motorcycle_motorcycle" depart="1530.33" departLane="best" from="23519204#0" to="23519546"/>
    <trip id="motorcycle214" type="motorcycle_motorcycle" depart="1537.52" departLane="best" from="-23520047" to="-23521793"/>