<?xml version="1.0" encoding="UTF-8"?>

<!-- generated on 2024-08-23 21:13:48.888460 by randomTrips.py v1_18_0+0000-03ecfdea036
<configuration>
    <net-file value="osm.net.xml.gz"/>
    <output-trip-file value="osm.passenger.trips.xml"/>
    <route-file value="osm.passenger.rou.xml"/>
    <prefix value="veh"/>
    <trip-attributes value="departLane=&quot;best&quot;"/>
    <fringe-start-attributes value="departSpeed=&quot;max&quot;"/>
    <vehicle-class value="passenger"/>
    <lanes value="True"/>
    <fringe-factor value="5"/>
    <allow-fringe.min-length value="1000.0"/>
    <via-edge-types value="highway.motorway,highway.motorway_link,highway.trunk_link,highway.primary_link,highway.secondary_link,highway.tertiary_link"/>
    <min-distance value="300.0"/>
    <min-distance.fringe value="10.0"/>
    <remove-loops value="True"/>
    <validate value="True"/>
    <insertion-density value="12.0"/>
</configuration>
-->

<!-- generated on 2024-08-23 21:13:48 by Eclipse SUMO duarouter Version 1.18.0
<configuration xmlns:xsi="http://www.w3.org/2001/XMLSchema-instance" xsi:noNamespaceSchemaLocation="http://sumo.dlr.de/xsd/duarouterConfiguration.xsd">

    <input>
        <net-file value="osm.net.xml.gz"/>
        <route-files value="osm.passenger.trips.xml"/>
    </input>

    <output>
        <output-file value="osm.passenger.trips.xml.tmp"/>
        <alternatives-output value="NUL"/>
        <write-trips value="true"/>
    </output>

    <processing>
        <remove-loops value="true"/>
    </processing>

    <time>
        <begin value="0.0"/>
        <end value="3600.0"/>
    </time>

    <report>
        <no-warnings value="true"/>
        <ignore-errors value="true"/>
        <no-step-log value="true"/>
    </report>

</configuration>
-->

<routes xmlns:xsi="http://www.w3.org/2001/XMLSchema-instance" xsi:noNamespaceSchemaLocation="http://sumo.dlr.de/xsd/routes_file.xsd">
    <vType id="veh_passenger" vClass="passenger"/>
    <trip id="veh0" type="veh_passenger" depart="0.00" departLane="best" from="23519756" to="-23518802#2"/>
    <trip id="veh1" type="veh_passenger" depart="2.39" departLane="best" from="-23521598" to="-23521287#1"/>
    <trip id="veh2" type="veh_passenger" depart="4.79" departLane="best" departSpeed="max" from="23521047" to="23520975#0"/>
    <trip id="veh3" type="veh_passenger" depart="7.18" departLane="best" departSpeed="max" from="600015262#0" to="-23519400"/>
    <trip id="veh4" type="veh_passenger" depart="9.58" departLane="best" departSpeed="max" from="-600129473" to="-23518923#0"/>
    <trip id="veh5" type="veh_passenger" depart="11.97" departLane="best" from="-23520886#2" to="23519159#3"/>
    <trip id="veh6" type="veh_passenger" depart="14.37" departLane="best" from="23518788#5" to="-23520905"/>
    <trip id="veh7" type="veh_passenger" depart="16.76" departLane="best" from="23519917" to="23519563#1"/>
    <trip id="veh8" type="veh_passenger" depart="19.16" departLane="best" from="-23520886#3" to="23520047"/>
    <trip id="veh9" type="veh_passenger" depart="21.55" departLane="best" from="23522098#4" to="23521239"/>
    <trip id="veh10" type="veh_passenger" depart="23.95" departLane="best" from="23519164" to="376034362"/>
    <trip id="veh11" type="veh_passenger" depart="26.34" departLane="best" from="-23519257" to="-23519483#3"/>
    <trip id="veh12" type="veh_passenger" depart="28.74" departLane="best" from="252223488" to="23520116#1"/>
    <trip id="veh13" type="veh_passenger" depart="31.13" departLane="best" from="-23522126" to="23521696#1"/>
    <trip id="veh14" type="veh_passenger" depart="33.53" departLane="best" from="-23518889#1" to="838916319#1"/>
    <trip id="veh15" type="veh_passenger" depart="35.92" departLane="best" from="272595409#7" to="-23519688#0"/>
    <trip id="veh16" type="veh_passenger" depart="38.32" departLane="best" from="252223483#4" to="23520349#4"/>
    <trip id="veh17" type="veh_passenger" depart="40.71" departLane="best" from="282035194" to="23519858"/>
    <trip id="veh18" type="veh_passenger" depart="43.11" departLane="best" from="-23520644#0" to="-23519041#1"/>
    <trip id="veh19" type="veh_passenger" depart="45.50" departLane="best" from="23520967#0" to="-252221727#2"/>
    <trip id="veh20" type="veh_passenger" depart="47.90" departLane="best" from="-23519204#0" to="23521401#6"/>
    <trip id="veh21" type="veh_passenger" depart="50.29" departLane="best" from="-23519479#2" to="-23522098#4"/>
    <trip id="veh22" type="veh_passenger" depart="52.69" departLane="best" from="23519717#3" to="-600619635#0"/>
    <trip id="veh23" type="veh_passenger" depart="55.08" departLane="best" from="-272595409#2" to="-23521049#0"/>
    <trip id="veh25" type="veh_passenger" depart="59.87" departLane="best" from="-23519886#1" to="-23520134#2"/>
    <trip id="veh26" type="veh_passenger" depart="62.27" departLane="best" from="23520132" to="-23521696#0"/>
    <trip id="veh27" type="veh_passenger" depart="64.66" departLane="best" departSpeed="max" from="-23520105" to="836685802#0"/>
    <trip id="veh28" type="veh_passenger" depart="67.06" departLane="best" from="838919378" to="23520644#0"/>
    <trip id="veh29" type="veh_passenger" depart="69.45" departLane="best" from="23519041#0" to="23521049#2"/>
    <trip id="veh30" type="veh_passenger" depart="71.85" departLane="best" from="252223485" to="23522098#0"/>
    <trip id="veh31" type="veh_passenger" depart="74.24" departLane="best" from="-23520967#2" to="23518926#2"/>
    <trip id="veh32" type="veh_passenger" depart="76.64" departLane="best" departSpeed="max" from="-23522023#1" to="-23521950"/>
    <trip id="veh33" type="veh_passenger" depart="79.03" departLane="best" departSpeed="max" from="-23520868" to="755073153"/>
    <trip id="veh34" type="veh_passenger" depart="81.43" departLane="best" from="596568239#1" to="-252223483#9"/>
    <trip id="veh35" type="veh_passenger" depart="83.82" departLane="best" from="23519972#3" to="838919069#3"/>
    <trip id="veh36" type="veh_passenger" depart="86.22" departLane="best" departSpeed="max" from="600554930#0" to="23518889#2"/>
    <trip id="veh37" type="veh_passenger" depart="88.61" departLane="best" from="-23521401#7" to="-23521743#0"/>
    <trip id="veh38" type="veh_passenger" depart="91.01" departLane="best" from="23519055" to="-23521917#1"/>
    <trip id="veh39" type="veh_passenger" depart="93.40" departLane="best" departSpeed="max" from="23519211" to="600129474"/>
    <trip id="veh40" type="veh_passenger" depart="95.80" departLane="best" departSpeed="max" from="-599998854" to="-23521217"/>
    <trip id="veh41" type="veh_passenger" depart="98.19" departLane="best" departSpeed="max" from="942162016" to="23519173#1"/>
    <trip id="veh42" type="veh_passenger" depart="100.59" departLane="best" from="-23519248" to="23519041#3"/>
    <trip id="veh43" type="veh_passenger" depart="102.98" departLane="best" from="-23519508" to="-23520448#4"/>
    <trip id="veh44" type="veh_passenger" depart="105.37" departLane="best" from="23521917#2" to="1060925382"/>
    <trip id="veh45" type="veh_passenger" depart="107.77" departLane="best" from="-23519103#1" to="836685805#1"/>
    <trip id="veh46" type="veh_passenger" depart="110.16" departLane="best" departSpeed="max" from="942162016" to="23519391#1"/>
    <trip id="veh47" type="veh_passenger" depart="112.56" departLane="best" from="838919378" to="599998850"/>
    <trip id="veh48" type="veh_passenger" depart="114.95" departLane="best" from="193054993" to="23521520"/>
    <trip id="veh49" type="veh_passenger" depart="117.35" departLane="best" from="23520349#0" to="23519483#1"/>
    <trip id="veh51" type="veh_passenger" depart="122.14" departLane="best" from="-23519563#0" to="-20300059"/>
    <trip id="veh52" type="veh_passenger" depart="124.53" departLane="best" departSpeed="max" from="-600619639" to="836685801#0"/>
    <trip id="veh53" type="veh_passenger" depart="126.93" departLane="best" from="1053485826#0" to="-23520535#1"/>
    <trip id="veh54" type="veh_passenger" depart="129.32" departLane="best" departSpeed="max" from="600554930#0" to="599998854"/>
    <trip id="veh55" type="veh_passenger" depart="131.72" departLane="best" from="23521904#2" to="23520628"/>
    <trip id="veh56" type="veh_passenger" depart="134.11" departLane="best" from="23519483#3" to="-23520134#1"/>
    <trip id="veh57" type="veh_passenger" depart="136.51" departLane="best" from="-23521401#12" to="23519483#3"/>
    <trip id="veh58" type="veh_passenger" depart="138.90" departLane="best" from="23521743#0" to="23519407#1"/>
    <trip id="veh59" type="veh_passenger" depart="141.30" departLane="best" departSpeed="max" from="-1060925382" to="-272595409#4"/>
    <trip id="veh60" type="veh_passenger" depart="143.69" departLane="best" from="-23518777#0" to="601444720"/>
    <trip id="veh61" type="veh_passenger" depart="146.09" departLane="best" from="596568239#2" to="272595409#7"/>
    <trip id="veh62" type="veh_passenger" depart="148.48" departLane="best" departSpeed="max" from="-23521975" to="-23519156#2"/>
    <trip id="veh63" type="veh_passenger" depart="150.88" departLane="best" from="596568239#2" to="760083149#1"/>
    <trip id="veh64" type="veh_passenger" depart="153.27" departLane="best" departSpeed="max" from="-23519204#8" to="23519055"/>
    <trip id="veh65" type="veh_passenger" depart="155.67" departLane="best" departSpeed="max" from="-23519103#2" to="-23521995"/>
    <trip id="veh66" type="veh_passenger" depart="158.06" departLane="best" from="-23521401#8" to="-23519837#0"/>
    <trip id="veh67" type="veh_passenger" depart="160.46" departLane="best" from="836685802#1" to="23519660#1"/>
    <trip id="veh68" type="veh_passenger" depart="162.85" departLane="best" departSpeed="max" from="-600129473" to="-23521101#1"/>
    <trip id="veh69" type="veh_passenger" depart="165.25" departLane="best" departSpeed="max" from="23518923#0" to="-23521696#2"/>
    <trip id="veh70" type="veh_passenger" depart="167.64" departLane="best" from="23520692" to="-252223483#7"/>
    <trip id="veh71" type="veh_passenger" depart="170.04" departLane="best" departSpeed="max" from="942162016" to="23520783#3"/>
    <trip id="veh72" type="veh_passenger" depart="172.43" departLane="best" from="600501527#0" to="23519204#8"/>
    <trip id="veh73" type="veh_passenger" depart="174.83" departLane="best" from="252221727#3" to="23520035"/>
    <trip id="veh74" type="veh_passenger" depart="177.22" departLane="best" from="23520967#3" to="-23521217"/>
    <trip id="veh75" type="veh_passenger" depart="179.62" departLane="best" from="-23519131#1" to="23520484#2"/>
    <trip id="veh76" type="veh_passenger" depart="182.01" departLane="best" from="-23520967#1" to="600483610#2"/>
    <trip id="veh77" type="veh_passenger" depart="184.41" departLane="best" from="272595409#7" to="-23519204#6"/>
    <trip id="veh78" type="veh_passenger" depart="186.80" departLane="best" departSpeed="max" from="-23521049#2" to="23520886#5"/>
    <trip id="veh79" type="veh_passenger" depart="189.20" departLane="best" from="-23520880#0" to="-23519854#5"/>
    <trip id="veh80" type="veh_passenger" depart="191.59" departLane="best" from="-760083149#0" to="23519846"/>
    <trip id="veh81" type="veh_passenger" depart="193.99" departLane="best" departSpeed="max" from="-836685801#1" to="252221727#2"/>
    <trip id="veh82" type="veh_passenger" depart="196.38" departLane="best" from="23522126" to="-23520880#2"/>
    <trip id="veh83" type="veh_passenger" depart="198.78" departLane="best" from="-23519391#1" to="-188701944#1"/>
    <trip id="veh84" type="veh_passenger" depart="201.17" departLane="best" departSpeed="max" from="-600129474" to="23518974#0"/>
    <trip id="veh85" type="veh_passenger" depart="203.57" departLane="best" departSpeed="max" from="902581873" to="23519483#4"/>
    <trip id="veh86" type="veh_passenger" depart="205.96" departLane="best" departSpeed="max" from="-600015258" to="-596568238#0"/>
    <trip id="veh87" type="veh_passenger" depart="208.35" departLane="best" from="282035194" to="-23521793"/>
    <trip id="veh88" type="veh_passenger" depart="210.75" departLane="best" from="-23520484#2" to="23518788#5"/>
    <trip id="veh89" type="veh_passenger" depart="213.14" departLane="best" departSpeed="max" from="-600129473" to="-23522103"/>
    <trip id="veh90" type="veh_passenger" depart="215.54" departLane="best" from="-23521317" to="600619635#1"/>
    <trip id="veh91" type="veh_passenger" depart="217.93" departLane="best" departSpeed="max" from="-600554931" to="599998850"/>
    <trip id="veh92" type="veh_passenger" depart="220.33" departLane="best" from="942192617" to="291263584#2"/>
    <trip id="veh93" type="veh_passenger" depart="222.72" departLane="best" from="272595407#0" to="-23520374#2"/>
    <trip id="veh94" type="veh_passenger" depart="225.12" departLane="best" from="838886530#2" to="-23521107#1"/>
    <trip id="veh95" type="veh_passenger" depart="227.51" departLane="best" departSpeed="max" from="-599998855" to="-23519159#0"/>
    <trip id="veh96" type="veh_passenger" depart="229.91" departLane="best" from="-272595409#7" to="838919378"/>
    <trip id="veh97" type="veh_passenger" depart="232.30" departLane="best" from="-23521401#7" to="252221727#1"/>
    <trip id="veh98" type="veh_passenger" depart="234.70" departLane="best" departSpeed="max" from="-600619639" to="1060925382"/>
    <trip id="veh99" type="veh_passenger" depart="237.09" departLane="best" from="23519024#4" to="23521470"/>
    <trip id="veh100" type="veh_passenger" depart="239.49" departLane="best" from="-23520062" to="252223483#12"/>
    <trip id="veh101" type="veh_passenger" depart="241.88" departLane="best" from="838919069#1" to="23519858"/>
    <trip id="veh102" type="veh_passenger" depart="244.28" departLane="best" from="23518923#1" to="-23521904#2"/>
    <trip id="veh103" type="veh_passenger" depart="246.67" departLane="best" from="-23519041#5" to="-23519972#2"/>
    <trip id="veh104" type="veh_passenger" depart="249.07" departLane="best" from="-1134693557" to="596568239#5"/>
    <trip id="veh105" type="veh_passenger" depart="251.46" departLane="best" departSpeed="max" from="-23520064" to="-836685805#2"/>
    <trip id="veh106" type="veh_passenger" depart="253.86" departLane="best" from="-23519204#1" to="23520814#0"/>
    <trip id="veh107" type="veh_passenger" depart="256.25" departLane="best" from="23519377" to="23520967#3"/>
    <trip id="veh108" type="veh_passenger" depart="258.65" departLane="best" from="-23521049#0" to="23519706#8"/>
    <trip id="veh109" type="veh_passenger" depart="261.04" departLane="best" from="596568243" to="-23521743#0"/>
    <trip id="veh110" type="veh_passenger" depart="263.44" departLane="best" from="23519377" to="23520349#5"/>
    <trip id="veh111" type="veh_passenger" depart="265.83" departLane="best" departSpeed="max" from="-600129472" to="-23519972#1"/>
    <trip id="veh113" type="veh_passenger" depart="270.62" departLane="best" departSpeed="max" from="-23521049#2" to="838919069#3"/>
    <trip id="veh114" type="veh_passenger" depart="273.02" departLane="best" from="23520136" to="-252223483#2"/>
    <trip id="veh115" type="veh_passenger" depart="275.41" departLane="best" departSpeed="max" from="-23522023#1" to="-23521917#1"/>
    <trip id="veh116" type="veh_passenger" depart="277.81" departLane="best" from="-23519156#1" to="23518889#1"/>
    <trip id="veh117" type="veh_passenger" depart="280.20" departLane="best" departSpeed="max" from="942162016" to="936923544#3"/>
    <trip id="veh118" type="veh_passenger" depart="282.60" departLane="best" from="-23519156#2" to="23521107#0"/>
    <trip id="veh119" type="veh_passenger" depart="284.99" departLane="best" from="-23521401#7" to="721779873"/>
    <trip id="veh120" type="veh_passenger" depart="287.39" departLane="best" from="596568239#3" to="600015262#1"/>
    <trip id="veh121" type="veh_passenger" depart="289.78" departLane="best" from="-252223483#6" to="-23521332#1"/>
    <trip id="veh122" type="veh_passenger" depart="292.18" departLane="best" from="-23519500#0" to="838924071"/>
    <trip id="veh123" type="veh_passenger" depart="294.57" departLane="best" from="23519972#1" to="-193054992"/>
    <trip id="veh124" type="veh_passenger" depart="296.97" departLane="best" from="23520097#0" to="724187422#1"/>
    <trip id="veh125" type="veh_passenger" depart="299.36" departLane="best" from="-23519775" to="-23519706#0"/>
    <trip id="veh126" type="veh_passenger" depart="301.76" departLane="best" from="23519483#4" to="23519688#2"/>
    <trip id="veh127" type="veh_passenger" depart="304.15" departLane="best" departSpeed="max" from="-23521520" to="23520116#1"/>
    <trip id="veh128" type="veh_passenger" depart="306.55" departLane="best" from="23520880#2" to="-23520999#0"/>
    <trip id="veh129" type="veh_passenger" depart="308.94" departLane="best" from="-23519717#0" to="-23521917#2"/>
    <trip id="veh130" type="veh_passenger" depart="311.33" departLane="best" from="-838919068" to="600483610#2"/>
    <trip id="veh131" type="veh_passenger" depart="313.73" departLane="best" from="252223487" to="-23519483#0"/>
    <trip id="veh132" type="veh_passenger" depart="316.12" departLane="best" departSpeed="max" from="-600129474" to="-23522098#2"/>
    <trip id="veh133" type="veh_passenger" depart="318.52" departLane="best" departSpeed="max" from="-1060925382" to="23522037#1"/>
    <trip id="veh134" type="veh_passenger" depart="320.91" departLane="best" from="23519724#0" to="-23521917#0"/>
    <trip id="veh135" type="veh_passenger" depart="323.31" departLane="best" from="23521063#1" to="-23519677"/>
    <trip id="veh136" type="veh_passenger" depart="325.70" departLane="best" departSpeed="max" from="-600137408" to="-20300056#0"/>
    <trip id="veh137" type="veh_passenger" depart="328.10" departLane="best" departSpeed="max" from="-23519159#3" to="600074311"/>
    <trip id="veh138" type="veh_passenger" depart="330.49" departLane="best" from="-600501527#0" to="-23519582#1"/>
    <trip id="veh139" type="veh_passenger" depart="332.89" departLane="best" from="-252223483#6" to="23519917"/>
    <trip id="veh140" type="veh_passenger" depart="335.28" departLane="best" from="-23519917" to="23519775"/>
    <trip id="veh141" type="veh_passenger" depart="337.68" departLane="best" departSpeed="max" from="-23521975" to="600137408"/>
    <trip id="veh142" type="veh_passenger" depart="340.07" departLane="best" from="23521979" to="599998850"/>
    <trip id="veh143" type="veh_passenger" depart="342.47" departLane="best" departSpeed="max" from="600501525" to="-23521049#1"/>
    <trip id="veh145" type="veh_passenger" depart="347.26" departLane="best" from="23521750" to="600098316"/>
    <trip id="veh146" type="veh_passenger" depart="349.65" departLane="best" departSpeed="max" from="-600015262#1" to="23520354#1"/>
    <trip id="veh147" type="veh_passenger" depart="352.05" departLane="best" from="23520062" to="721779677"/>
    <trip id="veh148" type="veh_passenger" depart="354.44" departLane="best" from="-291263584#3" to="838916319#3"/>
    <trip id="veh149" type="veh_passenger" depart="356.84" departLane="best" from="23518788#11" to="-23521743#0"/>
    <trip id="veh150" type="veh_passenger" depart="359.23" departLane="best" from="23518904" to="721779678"/>
    <trip id="veh151" type="veh_passenger" depart="361.63" departLane="best" from="-23522086#0" to="599998851"/>
    <trip id="veh152" type="veh_passenger" depart="364.02" departLane="best" from="-25055326#1" to="-23521920"/>
    <trip id="veh153" type="veh_passenger" depart="366.42" departLane="best" from="23521904#2" to="-23519632"/>
    <trip id="veh154" type="veh_passenger" depart="368.81" departLane="best" departSpeed="max" from="-23520886#5" to="252223488"/>
    <trip id="veh155" type="veh_passenger" depart="371.21" departLane="best" from="-724187422#1" to="-252223483#5"/>
    <trip id="veh156" type="veh_passenger" depart="373.60" departLane="best" from="23521950" to="23521401#0"/>
    <trip id="veh157" type="veh_passenger" depart="376.00" departLane="best" from="-23518788#1" to="23520886#2"/>
    <trip id="veh158" type="veh_passenger" depart="378.39" departLane="best" from="-23522098#4" to="599998851"/>
    <trip id="veh159" type="veh_passenger" depart="380.79" departLane="best" from="-838919067#1" to="-23522126"/>
    <trip id="veh160" type="veh_passenger" depart="383.18" departLane="best" from="23519822" to="-902581873"/>
    <trip id="veh161" type="veh_passenger" depart="385.58" departLane="best" from="1053485826#0" to="23519483#1"/>
    <trip id="veh162" type="veh_passenger" depart="387.97" departLane="best" from="-836685800#1" to="-23519706#0"/>
    <trip id="veh163" type="veh_passenger" depart="390.37" departLane="best" from="838919378" to="-23520535#1"/>
    <trip id="veh164" type="veh_passenger" depart="392.76" departLane="best" from="-23519500#0" to="-20300056#2"/>
    <trip id="veh165" type="veh_passenger" depart="395.16" departLane="best" from="-23520967#2" to="252223483#8"/>
    <trip id="veh166" type="veh_passenger" depart="397.55" departLane="best" from="23519483#0" to="23519204#1"/>
    <trip id="veh167" type="veh_passenger" depart="399.95" departLane="best" from="421435711#1" to="23519858"/>
    <trip id="veh168" type="veh_passenger" depart="402.34" departLane="best" departSpeed="max" from="-1060925382" to="600619639"/>
    <trip id="veh169" type="veh_passenger" depart="404.74" departLane="best" from="23518904" to="23521470"/>
    <trip id="veh170" type="veh_passenger" depart="407.13" departLane="best" from="23521086" to="23520886#5"/>
    <trip id="veh171" type="veh_passenger" depart="409.53" departLane="best" from="-252223483#9" to="-23519204#4"/>
    <trip id="veh172" type="veh_passenger" depart="411.92" departLane="best" departSpeed="max" from="23520116#0" to="-282035194"/>
    <trip id="veh173" type="veh_passenger" depart="414.31" departLane="best" from="-23522023#0" to="596568239#2"/>
    <trip id="veh174" type="veh_passenger" depart="416.71" departLane="best" from="-23520886#1" to="-252223483#2"/>
    <trip id="veh175" type="veh_passenger" depart="419.10" departLane="best" from="-23521979" to="-942162016"/>
    <trip id="veh176" type="veh_passenger" depart="421.50" departLane="best" departSpeed="max" from="-599998855" to="-252223483#1"/>
    <trip id="veh177" type="veh_passenger" depart="423.89" departLane="best" from="-836685800#2" to="23520975#0"/>
    <trip id="veh178" type="veh_passenger" depart="426.29" departLane="best" from="600501526#1" to="23520174"/>
    <trip id="veh179" type="veh_passenger" depart="428.68" departLane="best" from="23521917#1" to="-23519612"/>
    <trip id="veh180" type="veh_passenger" depart="431.08" departLane="best" departSpeed="max" from="-1060925382" to="-252221727#0"/>
    <trip id="veh181" type="veh_passenger" depart="433.47" departLane="best" from="600483610#0" to="-23519886#0"/>
    <trip id="veh182" type="veh_passenger" depart="435.87" departLane="best" from="23519972#2" to="23518959#1"/>
    <trip id="veh183" type="veh_passenger" depart="438.26" departLane="best" departSpeed="max" from="-600554931" to="23521107#1"/>
    <trip id="veh184" type="veh_passenger" depart="440.66" departLane="best" departSpeed="max" from="-836685801#1" to="600137408"/>
    <trip id="veh185" type="veh_passenger" depart="443.05" departLane="best" from="-23521979" to="-23520448#0"/>
    <trip id="veh186" type="veh_passenger" depart="445.45" departLane="best" from="-23519706#8" to="-30518290"/>
    <trip id="veh187" type="veh_passenger" depart="447.84" departLane="best" from="-252223483#0" to="23521917#1"/>
    <trip id="veh188" type="veh_passenger" depart="450.24" departLane="best" from="23520170" to="23521332#0"/>
    <trip id="veh189" type="veh_passenger" depart="452.63" departLane="best" from="-23520644#0" to="-23518802#1"/>
    <trip id="veh190" type="veh_passenger" depart="455.03" departLane="best" from="-23521239" to="23519024#5"/>
    <trip id="veh191" type="veh_passenger" depart="457.42" departLane="best" from="-272595409#1" to="-23519211"/>
    <trip id="veh192" type="veh_passenger" depart="459.82" departLane="best" departSpeed="max" from="-600105458" to="23520484#1"/>
    <trip id="veh193" type="veh_passenger" depart="462.21" departLane="best" departSpeed="max" from="-23520565" to="23521172#1"/>
    <trip id="veh194" type="veh_passenger" depart="464.61" departLane="best" departSpeed="max" from="-918137127#1" to="-23521696#2"/>
    <trip id="veh195" type="veh_passenger" depart="467.00" departLane="best" from="23519972#4" to="-188701944#0"/>
    <trip id="veh196" type="veh_passenger" depart="469.40" departLane="best" from="-23521185#0" to="23522037#1"/>
    <trip id="veh197" type="veh_passenger" depart="471.79" departLane="best" from="-23519483#4" to="1134693557"/>
    <trip id="veh198" type="veh_passenger" depart="474.19" departLane="best" departSpeed="max" from="-23520174" to="836685802#1"/>
    <trip id="veh199" type="veh_passenger" depart="476.58" departLane="best" from="224702397" to="-23519061#2"/>
    <trip id="veh201" type="veh_passenger" depart="481.37" departLane="best" from="23519391#0" to="836685800#1"/>
    <trip id="veh202" type="veh_passenger" depart="483.77" departLane="best" from="596568243" to="23520174"/>
    <trip id="veh203" type="veh_passenger" depart="486.16" departLane="best" from="-23520886#1" to="23519159#3"/>
    <trip id="veh204" type="veh_passenger" depart="488.56" departLane="best" from="252223483#5" to="-23519612"/>
    <trip id="veh205" type="veh_passenger" depart="490.95" departLane="best" departSpeed="max" from="600501525" to="23521823#2"/>
    <trip id="veh206" type="veh_passenger" depart="493.35" departLane="best" from="-836685802#0" to="-23521917#0"/>
    <trip id="veh208" type="veh_passenger" depart="498.14" departLane="best" from="-23521401#8" to="23519241"/>
    <trip id="veh209" type="veh_passenger" depart="500.53" departLane="best" from="-23519688#2" to="-23522086#1"/>
    <trip id="veh210" type="veh_passenger" depart="502.93" departLane="best" departSpeed="max" from="-23519159#3" to="25055326#1"/>
    <trip id="veh211" type="veh_passenger" depart="505.32" departLane="best" departSpeed="max" from="-23521520" to="272595409#2"/>
    <trip id="veh212" type="veh_passenger" depart="507.72" departLane="best" departSpeed="max" from="23518923#0" to="-23519972#1"/>
    <trip id="veh213" type="veh_passenger" depart="510.11" departLane="best" from="-23520994" to="23521166"/>
    <trip id="veh214" type="veh_passenger" depart="512.51" departLane="best" departSpeed="max" from="-600015262#1" to="-23519521"/>
    <trip id="veh215" type="veh_passenger" depart="514.90" departLane="best" departSpeed="max" from="-600105458" to="-23521047"/>
    <trip id="veh216" type="veh_passenger" depart="517.29" departLane="best" departSpeed="max" from="-600129472" to="600483610#2"/>
    <trip id="veh217" type="veh_passenger" depart="519.69" departLane="best" departSpeed="max" from="23519211" to="23521172#0"/>
    <trip id="veh218" type="veh_passenger" depart="522.08" departLane="best" from="-272595409#5" to="23522023#1"/>
    <trip id="veh219" type="veh_passenger" depart="524.48" departLane="best" from="23521917#5" to="-188701944#0"/>
    <trip id="veh220" type="veh_passenger" depart="526.87" departLane="best" from="252223483#4" to="-23521917#3"/>
    <trip id="veh221" type="veh_passenger" depart="529.27" departLane="best" from="-272595409#3" to="836685801#0"/>
    <trip id="veh222" type="veh_passenger" depart="531.66" departLane="best" departSpeed="max" from="-600129472" to="-23521904#1"/>
    <trip id="veh223" type="veh_passenger" depart="534.06" departLane="best" from="23518959#1" to="23520116#1"/>
    <trip id="veh224" type="veh_passenger" depart="536.45" departLane="best" from="-23520886#3" to="-23521217"/>
    <trip id="veh225" type="veh_passenger" depart="538.85" departLane="best" departSpeed="max" from="-600485241" to="-23518923#0"/>
    <trip id="veh226" type="veh_passenger" depart="541.24" departLane="best" from="-252221727#1" to="-23520999#0"/>
    <trip id="veh227" type="veh_passenger" depart="543.64" departLane="best" departSpeed="max" from="-600015258" to="-23520354#1"/>
    <trip id="veh228" type="veh_passenger" depart="546.03" departLane="best" from="-836685800#1" to="23519775"/>
    <trip id="veh229" type="veh_passenger" depart="548.43" departLane="best" from="-23519660#0" to="23518889#1"/>
    <trip id="veh230" type="veh_passenger" depart="550.82" departLane="best" departSpeed="max" from="-599998853" to="23519724#1"/>
    <trip id="veh231" type="veh_passenger" depart="553.22" departLane="best" from="-23518788#6" to="23520644#1"/>
    <trip id="veh232" type="veh_passenger" depart="555.61" departLane="best" from="-23519837#0" to="23518926#0"/>
    <trip id="veh233" type="veh_passenger" depart="558.01" departLane="best" departSpeed="max" from="-23519025" to="836685801#0"/>
    <trip id="veh234" type="veh_passenger" depart="560.40" departLane="best" departSpeed="max" from="-23520868" to="272595409#6"/>
    <trip id="veh235" type="veh_passenger" depart="562.80" departLane="best" from="-23521401#10" to="836685801#0"/>
    <trip id="veh236" type="veh_passenger" depart="565.19" departLane="best" from="23521332#3" to="-23519261"/>
    <trip id="veh237" type="veh_passenger" depart="567.59" departLane="best" departSpeed="max" from="-224702392#4" to="23519483#3"/>
    <trip id="veh238" type="veh_passenger" depart="569.98" departLane="best" from="942212143" to="-600501526#0"/>
    <trip id="veh239" type="veh_passenger" depart="572.38" departLane="best" from="23519917" to="243777837#3"/>
    <trip id="veh240" type="veh_passenger" depart="574.77" departLane="best" departSpeed="max" from="23519972#0" to="-23521917#3"/>